<flows>
  <vType id="type1" length="5.0" minGap="2.0" maxSpeed="60.0" vClass="passenger">
    <carFollowing-CC tauEngine="0.5" omegaN="0.2" xi="1" c1="0.5" decel="9" lanesCount="2" ccAccel="1.5"/>
  </vType>


  <vType id="type2" length="5.0" minGap="2.0" maxSpeed="60.0" vClass="passenger">
    <carFollowing-CC tauEngine="0.5" omegaN="0.2" xi="1" c1="0.5" decel="9" lanesCount="2" ccAccel="1.5"/>
  </vType>


  <flow id="platoon_1" from="m01" to="m34" begin="1.0" end="6.0" vehsPerHour="3600" type="type1" departSpeed="25" departLane="0" color="red"/>
  <flow id="platoon_2" from="m43" to="m10" begin="1.5" end="6.5" vehsPerHour="3600" type="type2" departSpeed="25" departLane="1" color="red"/>
  <flow id="platoon_15" from="n01" to="s34" begin="2.0" end="7.0" vehsPerHour="3600" type="type2" departSpeed="25" departLane="0" color="red"/>
  <flow id="platoon_16" from="s43" to="n10" begin="2.5" end="7.5" vehsPerHour="3600" type="type2" departSpeed="25" departLane="1" color="red"/>
  <flow id="platoon_17" from="s01" to="n34" begin="3.0" end="8.0" vehsPerHour="3600" type="type2" departSpeed="25" departLane="0" color="red"/>
  <flow id="platoon_18" from="n43" to="s10" begin="3.5" end="8.5" vehsPerHour="3600" type="type2" departSpeed="25" departLane="1" color="red"/>


  <flow id="platoon_5" from="m01" to="m34" begin="21.0" end="26.0" vehsPerHour="3600" type="type1" departSpeed="25" departLane="0" color="red"/>
  <flow id="platoon_6" from="m43" to="m10" begin="21.5" end="26.5" vehsPerHour="3600" type="type2" departSpeed="25" departLane="1" color="red"/>
  <flow id="platoon_31" from="n01" to="s34" begin="22.0" end="27.0" vehsPerHour="3600" type="type2" departSpeed="25" departLane="0" color="red"/>
  <flow id="platoon_32" from="s43" to="n10" begin="22.5" end="27.5" vehsPerHour="3600" type="type2" departSpeed="25" departLane="1" color="red"/>
  <flow id="platoon_33" from="s01" to="n34" begin="23.0" end="28.0" vehsPerHour="3600" type="type2" departSpeed="25" departLane="0" color="red"/>
  <flow id="platoon_34" from="n43" to="s10" begin="23.5" end="28.5" vehsPerHour="3600" type="type2" departSpeed="25" departLane="1" color="red"/>


  <flow id="platoon_9" from="m01" to="m34" begin="72.0" end="77.0" vehsPerHour="3600" type="type1" departSpeed="25" departLane="0" color="red"/>
  <flow id="platoon_10" from="m43" to="m10" begin="72.5" end="77.5" vehsPerHour="3600" type="type2" departSpeed="25" departLane="1" color="red"/>
  <flow id="platoon_47" from="n01" to="s34" begin="73.0" end="78.0" vehsPerHour="3600" type="type2" departSpeed="25" departLane="0" color="red"/>
  <flow id="platoon_48" from="s43" to="n10" begin="73.5" end="78.5" vehsPerHour="3600" type="type2" departSpeed="25" departLane="1" color="red"/>
  <flow id="platoon_49" from="s01" to="n34" begin="74.0" end="79.0" vehsPerHour="3600" type="type2" departSpeed="25" departLane="0" color="red"/>
  <flow id="platoon_50" from="n43" to="s10" begin="74.5" end="79.5" vehsPerHour="3600" type="type2" departSpeed="25" departLane="1" color="red"/>




</flows>
