<?xml version="1.0" encoding="UTF-8"?>

<!-- generated on Sat May  1 01:14:29 2021 by Eclipse SUMO netedit Version 1.7.0
<configuration xmlns:xsi="http://www.w3.org/2001/XMLSchema-instance" xsi:noNamespaceSchemaLocation="http://sumo.dlr.de/xsd/netconvertConfiguration.xsd">

    <input>
        <sumo-net-file value="/Users/ccyen/.spyder-py3/C3PO_DRL_FUEL_OPT/maps/FourIntersections/test_netconvert_simple.net.xml"/>
    </input>

    <output>
        <output-file value="/Users/ccyen/.spyder-py3/C3PO_DRL_FUEL_OPT/maps/FourIntersections/test_netconvert_simple.net.xml"/>
    </output>

    <processing>
        <geometry.min-radius.fix.railways value="false"/>
        <geometry.max-grade.fix value="false"/>
        <offset.disable-normalization value="true"/>
        <lefthand value="false"/>
    </processing>

    <junctions>
        <no-internal-links value="false"/>
        <no-turnarounds value="true"/>
        <junctions.corner-detail value="5"/>
        <junctions.limit-turn-speed value="5.5"/>
        <rectangular-lane-cut value="false"/>
    </junctions>

    <pedestrian>
        <walkingareas value="false"/>
    </pedestrian>

    <report>
        <aggregate-warnings value="5"/>
    </report>

</configuration>
-->

<net version="1.6" junctionCornerDetail="5" limitTurnSpeed="5.50" xmlns:xsi="http://www.w3.org/2001/XMLSchema-instance" xsi:noNamespaceSchemaLocation="http://sumo.dlr.de/xsd/net_file.xsd">

    <location netOffset="200.00,200.00" convBoundary="0.00,0.00,1000.00,400.00" origBoundary="-200.00,-200.00,800.00,200.00" projParameter="!"/>

    <edge id=":C_0" function="internal">
        <lane id=":C_0_0" index="0" speed="9.26" length="15.31" shape="192.00,220.00 191.25,214.75 189.00,211.00 185.25,208.75 184.00,208.57"/>
    </edge>
    <edge id=":C_1" function="internal">
        <lane id=":C_1_0" index="0" speed="13.89" length="40.00" shape="192.00,220.00 192.00,180.00"/>
    </edge>
    <edge id=":C_2" function="internal">
        <lane id=":C_2_0" index="0" speed="10.36" length="20.47" shape="195.20,220.00 194.25,213.35 191.40,208.60 186.65,205.75 184.00,205.37"/>
    </edge>
    <edge id=":C_3" function="internal">
        <lane id=":C_3_0" index="0" speed="13.89" length="40.00" shape="195.20,220.00 195.20,180.00"/>
    </edge>
    <edge id=":C_4" function="internal">
        <lane id=":C_4_0" index="0" speed="12.28" length="30.79" shape="198.40,220.00 199.75,210.55 203.80,203.80 210.55,199.75 216.00,198.97"/>
    </edge>
    <edge id=":C_20" function="internal">
        <lane id=":C_20_0" index="0" speed="9.26" length="4.04" shape="184.00,208.57 180.00,208.00"/>
    </edge>
    <edge id=":C_21" function="internal">
        <lane id=":C_21_0" index="0" speed="10.36" length="4.04" shape="184.00,205.37 180.00,204.80"/>
    </edge>
    <edge id=":C_22" function="internal">
        <lane id=":C_22_0" index="0" speed="12.28" length="4.04" shape="216.00,198.97 220.00,198.40"/>
    </edge>
    <edge id=":C_5" function="internal">
        <lane id=":C_5_0" index="0" speed="9.26" length="15.31" shape="220.00,208.00 214.75,208.75 211.00,211.00 208.75,214.75 208.57,216.00"/>
    </edge>
    <edge id=":C_6" function="internal">
        <lane id=":C_6_0" index="0" speed="13.89" length="40.00" shape="220.00,208.00 180.00,208.00"/>
    </edge>
    <edge id=":C_7" function="internal">
        <lane id=":C_7_0" index="0" speed="10.36" length="20.47" shape="220.00,204.80 213.35,205.75 208.60,208.60 205.75,213.35 205.37,216.00"/>
    </edge>
    <edge id=":C_8" function="internal">
        <lane id=":C_8_0" index="0" speed="13.89" length="40.00" shape="220.00,204.80 180.00,204.80"/>
    </edge>
    <edge id=":C_9" function="internal">
        <lane id=":C_9_0" index="0" speed="12.28" length="30.79" shape="220.00,201.60 210.55,200.25 203.80,196.20 199.75,189.45 198.97,184.00"/>
    </edge>
    <edge id=":C_23" function="internal">
        <lane id=":C_23_0" index="0" speed="9.26" length="4.04" shape="208.57,216.00 208.00,220.00"/>
    </edge>
    <edge id=":C_24" function="internal">
        <lane id=":C_24_0" index="0" speed="10.36" length="4.04" shape="205.37,216.00 204.80,220.00"/>
    </edge>
    <edge id=":C_25" function="internal">
        <lane id=":C_25_0" index="0" speed="12.28" length="4.04" shape="198.97,184.00 198.40,180.00"/>
    </edge>
    <edge id=":C_10" function="internal">
        <lane id=":C_10_0" index="0" speed="9.26" length="15.31" shape="208.00,180.00 208.75,185.25 211.00,189.00 214.75,191.25 216.00,191.43"/>
    </edge>
    <edge id=":C_11" function="internal">
        <lane id=":C_11_0" index="0" speed="13.89" length="40.00" shape="208.00,180.00 208.00,220.00"/>
    </edge>
    <edge id=":C_12" function="internal">
        <lane id=":C_12_0" index="0" speed="10.36" length="20.47" shape="204.80,180.00 205.75,186.65 208.60,191.40 213.35,194.25 216.00,194.63"/>
    </edge>
    <edge id=":C_13" function="internal">
        <lane id=":C_13_0" index="0" speed="13.89" length="40.00" shape="204.80,180.00 204.80,220.00"/>
    </edge>
    <edge id=":C_14" function="internal">
        <lane id=":C_14_0" index="0" speed="12.28" length="30.79" shape="201.60,180.00 200.25,189.45 196.20,196.20 189.45,200.25 184.00,201.03"/>
    </edge>
    <edge id=":C_26" function="internal">
        <lane id=":C_26_0" index="0" speed="9.26" length="4.04" shape="216.00,191.43 220.00,192.00"/>
    </edge>
    <edge id=":C_27" function="internal">
        <lane id=":C_27_0" index="0" speed="10.36" length="4.04" shape="216.00,194.63 220.00,195.20"/>
    </edge>
    <edge id=":C_28" function="internal">
        <lane id=":C_28_0" index="0" speed="12.28" length="4.04" shape="184.00,201.03 180.00,201.60"/>
    </edge>
    <edge id=":C_15" function="internal">
        <lane id=":C_15_0" index="0" speed="9.26" length="15.31" shape="180.00,192.00 185.25,191.25 189.00,189.00 191.25,185.25 191.43,184.00"/>
    </edge>
    <edge id=":C_16" function="internal">
        <lane id=":C_16_0" index="0" speed="13.89" length="40.00" shape="180.00,192.00 220.00,192.00"/>
    </edge>
    <edge id=":C_17" function="internal">
        <lane id=":C_17_0" index="0" speed="10.36" length="20.47" shape="180.00,195.20 186.65,194.25 191.40,191.40 194.25,186.65 194.63,184.00"/>
    </edge>
    <edge id=":C_18" function="internal">
        <lane id=":C_18_0" index="0" speed="13.89" length="40.00" shape="180.00,195.20 220.00,195.20"/>
    </edge>
    <edge id=":C_19" function="internal">
        <lane id=":C_19_0" index="0" speed="12.28" length="30.79" shape="180.00,198.40 189.45,199.75 196.20,203.80 200.25,210.55 201.03,216.00"/>
    </edge>
    <edge id=":C_29" function="internal">
        <lane id=":C_29_0" index="0" speed="9.26" length="4.04" shape="191.43,184.00 192.00,180.00"/>
    </edge>
    <edge id=":C_30" function="internal">
        <lane id=":C_30_0" index="0" speed="10.36" length="4.04" shape="194.63,184.00 195.20,180.00"/>
    </edge>
    <edge id=":C_31" function="internal">
        <lane id=":C_31_0" index="0" speed="12.28" length="4.04" shape="201.03,216.00 201.60,220.00"/>
    </edge>
    <edge id=":C_c0" function="crossing" crossingEdges="CN NC">
        <lane id=":C_c0_0" index="0" allow="pedestrian" speed="1.00" length="32.00" width="4.00" shape="216.00,218.00 184.00,218.00"/>
    </edge>
    <edge id=":C_c1" function="crossing" crossingEdges="link_C_C2 link_C2_C">
        <lane id=":C_c1_0" index="0" allow="pedestrian" speed="1.00" length="32.00" width="4.00" shape="218.00,184.00 218.00,216.00"/>
    </edge>
    <edge id=":C_c2" function="crossing" crossingEdges="CS SC">
        <lane id=":C_c2_0" index="0" allow="pedestrian" speed="1.00" length="32.00" width="4.00" shape="184.00,182.00 216.00,182.00"/>
    </edge>
    <edge id=":C_c3" function="crossing" crossingEdges="CW WC">
        <lane id=":C_c3_0" index="0" allow="pedestrian" speed="1.00" length="32.00" width="4.00" shape="182.00,216.00 182.00,184.00"/>
    </edge>
    <edge id=":C_w0" function="walkingarea">
        <lane id=":C_w0_0" index="0" allow="pedestrian" speed="1.00" length="34.91" width="3.20" shape="184.00,220.00 187.20,220.00 187.20,220.00 190.40,220.00 190.40,220.00 193.60,220.00 193.60,220.00 196.80,220.00 196.80,220.00 200.00,220.00 200.00,220.00 203.20,220.00 203.20,220.00 206.40,220.00 206.40,220.00 209.60,220.00 209.60,220.00 212.80,220.00 212.80,220.00 216.00,220.00 220.00,216.00 220.00,212.80 220.00,212.80 220.00,209.60 220.00,209.60 220.00,206.40 220.00,206.40 220.00,203.20 220.00,203.20 220.00,200.00 220.00,200.00 220.00,196.80 220.00,196.80 220.00,193.60 220.00,193.60 220.00,190.40 220.00,190.40 220.00,187.20 220.00,187.20 220.00,184.00 216.00,180.00 212.80,180.00 212.80,180.00 209.60,180.00 209.60,180.00 206.40,180.00 206.40,180.00 203.20,180.00 203.20,180.00 200.00,180.00 200.00,180.00 196.80,180.00 196.80,180.00 193.60,180.00 193.60,180.00 190.40,180.00 190.40,180.00 187.20,180.00 187.20,180.00 184.00,180.00 180.00,184.00 180.00,187.20 180.00,187.20 180.00,190.40 180.00,190.40 180.00,193.60 180.00,193.60 180.00,196.80 180.00,196.80 180.00,200.00 180.00,200.00 180.00,203.20 180.00,203.20 180.00,206.40 180.00,206.40 180.00,209.60 180.00,209.60 180.00,212.80 180.00,212.80 180.00,216.00 183.89,218.78 183.56,217.78 183.00,217.00 182.22,216.44 181.22,216.11"/>
    </edge>
    <edge id=":C_w1" function="walkingarea">
        <lane id=":C_w1_0" index="0" allow="pedestrian" speed="1.00" length="2.83" width="4.00" shape="184.00,216.00 184.00,220.00 180.00,216.00 184.00,216.00"/>
    </edge>
    <edge id=":C_w2" function="walkingarea">
        <lane id=":C_w2_0" index="0" allow="pedestrian" speed="1.00" length="2.83" width="4.00" shape="216.00,216.00 220.00,216.00 216.00,220.00 216.00,216.00"/>
    </edge>
    <edge id=":C_w3" function="walkingarea">
        <lane id=":C_w3_0" index="0" allow="pedestrian" speed="1.00" length="2.83" width="4.00" shape="216.00,184.00 216.00,180.00 220.00,184.00 216.00,184.00"/>
    </edge>
    <edge id=":C_w4" function="walkingarea">
        <lane id=":C_w4_0" index="0" allow="pedestrian" speed="1.00" length="2.83" width="4.00" shape="184.00,184.00 180.00,184.00 184.00,180.00 184.00,184.00"/>
    </edge>
    <edge id=":C2_0" function="internal">
        <lane id=":C2_0_0" index="0" speed="9.26" length="15.31" shape="392.00,220.00 391.25,214.75 389.00,211.00 385.25,208.75 384.00,208.57"/>
    </edge>
    <edge id=":C2_1" function="internal">
        <lane id=":C2_1_0" index="0" speed="13.89" length="40.00" shape="392.00,220.00 392.00,180.00"/>
    </edge>
    <edge id=":C2_2" function="internal">
        <lane id=":C2_2_0" index="0" speed="10.36" length="20.47" shape="395.20,220.00 394.25,213.35 391.40,208.60 386.65,205.75 384.00,205.37"/>
    </edge>
    <edge id=":C2_3" function="internal">
        <lane id=":C2_3_0" index="0" speed="13.89" length="40.00" shape="395.20,220.00 395.20,180.00"/>
    </edge>
    <edge id=":C2_4" function="internal">
        <lane id=":C2_4_0" index="0" speed="12.28" length="30.79" shape="398.40,220.00 399.75,210.55 403.80,203.80 410.55,199.75 416.00,198.97"/>
    </edge>
    <edge id=":C2_20" function="internal">
        <lane id=":C2_20_0" index="0" speed="9.26" length="4.04" shape="384.00,208.57 380.00,208.00"/>
    </edge>
    <edge id=":C2_21" function="internal">
        <lane id=":C2_21_0" index="0" speed="10.36" length="4.04" shape="384.00,205.37 380.00,204.80"/>
    </edge>
    <edge id=":C2_22" function="internal">
        <lane id=":C2_22_0" index="0" speed="12.28" length="4.04" shape="416.00,198.97 420.00,198.40"/>
    </edge>
    <edge id=":C2_5" function="internal">
        <lane id=":C2_5_0" index="0" speed="9.26" length="15.31" shape="420.00,208.00 414.75,208.75 411.00,211.00 408.75,214.75 408.57,216.00"/>
    </edge>
    <edge id=":C2_6" function="internal">
        <lane id=":C2_6_0" index="0" speed="13.89" length="40.00" shape="420.00,208.00 380.00,208.00"/>
    </edge>
    <edge id=":C2_7" function="internal">
        <lane id=":C2_7_0" index="0" speed="10.36" length="20.47" shape="420.00,204.80 413.35,205.75 408.60,208.60 405.75,213.35 405.37,216.00"/>
    </edge>
    <edge id=":C2_8" function="internal">
        <lane id=":C2_8_0" index="0" speed="13.89" length="40.00" shape="420.00,204.80 380.00,204.80"/>
    </edge>
    <edge id=":C2_9" function="internal">
        <lane id=":C2_9_0" index="0" speed="12.28" length="30.79" shape="420.00,201.60 410.55,200.25 403.80,196.20 399.75,189.45 398.97,184.00"/>
    </edge>
    <edge id=":C2_23" function="internal">
        <lane id=":C2_23_0" index="0" speed="9.26" length="4.04" shape="408.57,216.00 408.00,220.00"/>
    </edge>
    <edge id=":C2_24" function="internal">
        <lane id=":C2_24_0" index="0" speed="10.36" length="4.04" shape="405.37,216.00 404.80,220.00"/>
    </edge>
    <edge id=":C2_25" function="internal">
        <lane id=":C2_25_0" index="0" speed="12.28" length="4.04" shape="398.97,184.00 398.40,180.00"/>
    </edge>
    <edge id=":C2_10" function="internal">
        <lane id=":C2_10_0" index="0" speed="9.26" length="15.31" shape="408.00,180.00 408.75,185.25 411.00,189.00 414.75,191.25 416.00,191.43"/>
    </edge>
    <edge id=":C2_11" function="internal">
        <lane id=":C2_11_0" index="0" speed="13.89" length="40.00" shape="408.00,180.00 408.00,220.00"/>
    </edge>
    <edge id=":C2_12" function="internal">
        <lane id=":C2_12_0" index="0" speed="10.36" length="20.47" shape="404.80,180.00 405.75,186.65 408.60,191.40 413.35,194.25 416.00,194.63"/>
    </edge>
    <edge id=":C2_13" function="internal">
        <lane id=":C2_13_0" index="0" speed="13.89" length="40.00" shape="404.80,180.00 404.80,220.00"/>
    </edge>
    <edge id=":C2_14" function="internal">
        <lane id=":C2_14_0" index="0" speed="12.28" length="30.79" shape="401.60,180.00 400.25,189.45 396.20,196.20 389.45,200.25 384.00,201.03"/>
    </edge>
    <edge id=":C2_26" function="internal">
        <lane id=":C2_26_0" index="0" speed="9.26" length="4.04" shape="416.00,191.43 420.00,192.00"/>
    </edge>
    <edge id=":C2_27" function="internal">
        <lane id=":C2_27_0" index="0" speed="10.36" length="4.04" shape="416.00,194.63 420.00,195.20"/>
    </edge>
    <edge id=":C2_28" function="internal">
        <lane id=":C2_28_0" index="0" speed="12.28" length="4.04" shape="384.00,201.03 380.00,201.60"/>
    </edge>
    <edge id=":C2_15" function="internal">
        <lane id=":C2_15_0" index="0" speed="9.26" length="15.31" shape="380.00,192.00 385.25,191.25 389.00,189.00 391.25,185.25 391.43,184.00"/>
    </edge>
    <edge id=":C2_16" function="internal">
        <lane id=":C2_16_0" index="0" speed="13.89" length="40.00" shape="380.00,192.00 420.00,192.00"/>
    </edge>
    <edge id=":C2_17" function="internal">
        <lane id=":C2_17_0" index="0" speed="10.36" length="20.47" shape="380.00,195.20 386.65,194.25 391.40,191.40 394.25,186.65 394.63,184.00"/>
    </edge>
    <edge id=":C2_18" function="internal">
        <lane id=":C2_18_0" index="0" speed="13.89" length="40.00" shape="380.00,195.20 420.00,195.20"/>
    </edge>
    <edge id=":C2_19" function="internal">
        <lane id=":C2_19_0" index="0" speed="12.28" length="30.79" shape="380.00,198.40 389.45,199.75 396.20,203.80 400.25,210.55 401.03,216.00"/>
    </edge>
    <edge id=":C2_29" function="internal">
        <lane id=":C2_29_0" index="0" speed="9.26" length="4.04" shape="391.43,184.00 392.00,180.00"/>
    </edge>
    <edge id=":C2_30" function="internal">
        <lane id=":C2_30_0" index="0" speed="10.36" length="4.04" shape="394.63,184.00 395.20,180.00"/>
    </edge>
    <edge id=":C2_31" function="internal">
        <lane id=":C2_31_0" index="0" speed="12.28" length="4.04" shape="401.03,216.00 401.60,220.00"/>
    </edge>
    <edge id=":C2_c0" function="crossing" crossingEdges="CN2 NC2">
        <lane id=":C2_c0_0" index="0" allow="pedestrian" speed="1.00" length="32.00" width="4.00" shape="416.00,218.00 384.00,218.00"/>
    </edge>
    <edge id=":C2_c1" function="crossing" crossingEdges="link_C2_C3 link_C3_C2">
        <lane id=":C2_c1_0" index="0" allow="pedestrian" speed="1.00" length="32.00" width="4.00" shape="418.00,184.00 418.00,216.00"/>
    </edge>
    <edge id=":C2_c2" function="crossing" crossingEdges="CS2 SC2">
        <lane id=":C2_c2_0" index="0" allow="pedestrian" speed="1.00" length="32.00" width="4.00" shape="384.00,182.00 416.00,182.00"/>
    </edge>
    <edge id=":C2_c3" function="crossing" crossingEdges="link_C2_C link_C_C2">
        <lane id=":C2_c3_0" index="0" allow="pedestrian" speed="1.00" length="32.00" width="4.00" shape="382.00,216.00 382.00,184.00"/>
    </edge>
    <edge id=":C2_w0" function="walkingarea">
        <lane id=":C2_w0_0" index="0" allow="pedestrian" speed="1.00" length="34.91" width="3.20" shape="384.00,220.00 387.20,220.00 387.20,220.00 390.40,220.00 390.40,220.00 393.60,220.00 393.60,220.00 396.80,220.00 396.80,220.00 400.00,220.00 400.00,220.00 403.20,220.00 403.20,220.00 406.40,220.00 406.40,220.00 409.60,220.00 409.60,220.00 412.80,220.00 412.80,220.00 416.00,220.00 420.00,216.00 420.00,212.80 420.00,212.80 420.00,209.60 420.00,209.60 420.00,206.40 420.00,206.40 420.00,203.20 420.00,203.20 420.00,200.00 420.00,200.00 420.00,196.80 420.00,196.80 420.00,193.60 420.00,193.60 420.00,190.40 420.00,190.40 420.00,187.20 420.00,187.20 420.00,184.00 416.00,180.00 412.80,180.00 412.80,180.00 409.60,180.00 409.60,180.00 406.40,180.00 406.40,180.00 403.20,180.00 403.20,180.00 400.00,180.00 400.00,180.00 396.80,180.00 396.80,180.00 393.60,180.00 393.60,180.00 390.40,180.00 390.40,180.00 387.20,180.00 387.20,180.00 384.00,180.00 380.00,184.00 380.00,187.20 380.00,187.20 380.00,190.40 380.00,190.40 380.00,193.60 380.00,193.60 380.00,196.80 380.00,196.80 380.00,200.00 380.00,200.00 380.00,203.20 380.00,203.20 380.00,206.40 380.00,206.40 380.00,209.60 380.00,209.60 380.00,212.80 380.00,212.80 380.00,216.00 383.89,218.78 383.56,217.78 383.00,217.00 382.22,216.44 381.22,216.11"/>
    </edge>
    <edge id=":C2_w1" function="walkingarea">
        <lane id=":C2_w1_0" index="0" allow="pedestrian" speed="1.00" length="2.83" width="4.00" shape="384.00,216.00 384.00,220.00 380.00,216.00 384.00,216.00"/>
    </edge>
    <edge id=":C2_w2" function="walkingarea">
        <lane id=":C2_w2_0" index="0" allow="pedestrian" speed="1.00" length="2.83" width="4.00" shape="416.00,216.00 420.00,216.00 416.00,220.00 416.00,216.00"/>
    </edge>
    <edge id=":C2_w3" function="walkingarea">
        <lane id=":C2_w3_0" index="0" allow="pedestrian" speed="1.00" length="2.83" width="4.00" shape="416.00,184.00 416.00,180.00 420.00,184.00 416.00,184.00"/>
    </edge>
    <edge id=":C2_w4" function="walkingarea">
        <lane id=":C2_w4_0" index="0" allow="pedestrian" speed="1.00" length="2.83" width="4.00" shape="384.00,184.00 380.00,184.00 384.00,180.00 384.00,184.00"/>
    </edge>
    <edge id=":C3_0" function="internal">
        <lane id=":C3_0_0" index="0" speed="9.26" length="15.31" shape="592.00,220.00 591.25,214.75 589.00,211.00 585.25,208.75 584.00,208.57"/>
    </edge>
    <edge id=":C3_1" function="internal">
        <lane id=":C3_1_0" index="0" speed="13.89" length="40.00" shape="592.00,220.00 592.00,180.00"/>
    </edge>
    <edge id=":C3_2" function="internal">
        <lane id=":C3_2_0" index="0" speed="10.36" length="20.47" shape="595.20,220.00 594.25,213.35 591.40,208.60 586.65,205.75 584.00,205.37"/>
    </edge>
    <edge id=":C3_3" function="internal">
        <lane id=":C3_3_0" index="0" speed="13.89" length="40.00" shape="595.20,220.00 595.20,180.00"/>
    </edge>
    <edge id=":C3_4" function="internal">
        <lane id=":C3_4_0" index="0" speed="12.28" length="30.79" shape="598.40,220.00 599.75,210.55 603.80,203.80 610.55,199.75 616.00,198.97"/>
    </edge>
    <edge id=":C3_20" function="internal">
        <lane id=":C3_20_0" index="0" speed="9.26" length="4.04" shape="584.00,208.57 580.00,208.00"/>
    </edge>
    <edge id=":C3_21" function="internal">
        <lane id=":C3_21_0" index="0" speed="10.36" length="4.04" shape="584.00,205.37 580.00,204.80"/>
    </edge>
    <edge id=":C3_22" function="internal">
        <lane id=":C3_22_0" index="0" speed="12.28" length="4.04" shape="616.00,198.97 620.00,198.40"/>
    </edge>
    <edge id=":C3_5" function="internal">
        <lane id=":C3_5_0" index="0" speed="9.26" length="15.31" shape="620.00,208.00 614.75,208.75 611.00,211.00 608.75,214.75 608.57,216.00"/>
    </edge>
    <edge id=":C3_6" function="internal">
        <lane id=":C3_6_0" index="0" speed="13.89" length="40.00" shape="620.00,208.00 580.00,208.00"/>
    </edge>
    <edge id=":C3_7" function="internal">
        <lane id=":C3_7_0" index="0" speed="10.36" length="20.47" shape="620.00,204.80 613.35,205.75 608.60,208.60 605.75,213.35 605.37,216.00"/>
    </edge>
    <edge id=":C3_8" function="internal">
        <lane id=":C3_8_0" index="0" speed="13.89" length="40.00" shape="620.00,204.80 580.00,204.80"/>
    </edge>
    <edge id=":C3_9" function="internal">
        <lane id=":C3_9_0" index="0" speed="12.28" length="30.79" shape="620.00,201.60 610.55,200.25 603.80,196.20 599.75,189.45 598.97,184.00"/>
    </edge>
    <edge id=":C3_23" function="internal">
        <lane id=":C3_23_0" index="0" speed="9.26" length="4.04" shape="608.57,216.00 608.00,220.00"/>
    </edge>
    <edge id=":C3_24" function="internal">
        <lane id=":C3_24_0" index="0" speed="10.36" length="4.04" shape="605.37,216.00 604.80,220.00"/>
    </edge>
    <edge id=":C3_25" function="internal">
        <lane id=":C3_25_0" index="0" speed="12.28" length="4.04" shape="598.97,184.00 598.40,180.00"/>
    </edge>
    <edge id=":C3_10" function="internal">
        <lane id=":C3_10_0" index="0" speed="9.26" length="15.31" shape="608.00,180.00 608.75,185.25 611.00,189.00 614.75,191.25 616.00,191.43"/>
    </edge>
    <edge id=":C3_11" function="internal">
        <lane id=":C3_11_0" index="0" speed="13.89" length="40.00" shape="608.00,180.00 608.00,220.00"/>
    </edge>
    <edge id=":C3_12" function="internal">
        <lane id=":C3_12_0" index="0" speed="10.36" length="20.47" shape="604.80,180.00 605.75,186.65 608.60,191.40 613.35,194.25 616.00,194.63"/>
    </edge>
    <edge id=":C3_13" function="internal">
        <lane id=":C3_13_0" index="0" speed="13.89" length="40.00" shape="604.80,180.00 604.80,220.00"/>
    </edge>
    <edge id=":C3_14" function="internal">
        <lane id=":C3_14_0" index="0" speed="12.28" length="30.79" shape="601.60,180.00 600.25,189.45 596.20,196.20 589.45,200.25 584.00,201.03"/>
    </edge>
    <edge id=":C3_26" function="internal">
        <lane id=":C3_26_0" index="0" speed="9.26" length="4.04" shape="616.00,191.43 620.00,192.00"/>
    </edge>
    <edge id=":C3_27" function="internal">
        <lane id=":C3_27_0" index="0" speed="10.36" length="4.04" shape="616.00,194.63 620.00,195.20"/>
    </edge>
    <edge id=":C3_28" function="internal">
        <lane id=":C3_28_0" index="0" speed="12.28" length="4.04" shape="584.00,201.03 580.00,201.60"/>
    </edge>
    <edge id=":C3_15" function="internal">
        <lane id=":C3_15_0" index="0" speed="9.26" length="15.31" shape="580.00,192.00 585.25,191.25 589.00,189.00 591.25,185.25 591.43,184.00"/>
    </edge>
    <edge id=":C3_16" function="internal">
        <lane id=":C3_16_0" index="0" speed="13.89" length="40.00" shape="580.00,192.00 620.00,192.00"/>
    </edge>
    <edge id=":C3_17" function="internal">
        <lane id=":C3_17_0" index="0" speed="10.36" length="20.47" shape="580.00,195.20 586.65,194.25 591.40,191.40 594.25,186.65 594.63,184.00"/>
    </edge>
    <edge id=":C3_18" function="internal">
        <lane id=":C3_18_0" index="0" speed="13.89" length="40.00" shape="580.00,195.20 620.00,195.20"/>
    </edge>
    <edge id=":C3_19" function="internal">
        <lane id=":C3_19_0" index="0" speed="12.28" length="30.79" shape="580.00,198.40 589.45,199.75 596.20,203.80 600.25,210.55 601.03,216.00"/>
    </edge>
    <edge id=":C3_29" function="internal">
        <lane id=":C3_29_0" index="0" speed="9.26" length="4.04" shape="591.43,184.00 592.00,180.00"/>
    </edge>
    <edge id=":C3_30" function="internal">
        <lane id=":C3_30_0" index="0" speed="10.36" length="4.04" shape="594.63,184.00 595.20,180.00"/>
    </edge>
    <edge id=":C3_31" function="internal">
        <lane id=":C3_31_0" index="0" speed="12.28" length="4.04" shape="601.03,216.00 601.60,220.00"/>
    </edge>
    <edge id=":C3_c0" function="crossing" crossingEdges="CN3 NC3">
        <lane id=":C3_c0_0" index="0" allow="pedestrian" speed="1.00" length="32.00" width="4.00" shape="616.00,218.00 584.00,218.00"/>
    </edge>
    <edge id=":C3_c1" function="crossing" crossingEdges="link_C3_C4 link_C4_C3">
        <lane id=":C3_c1_0" index="0" allow="pedestrian" speed="1.00" length="32.00" width="4.00" shape="618.00,184.00 618.00,216.00"/>
    </edge>
    <edge id=":C3_c2" function="crossing" crossingEdges="CS3 SC3">
        <lane id=":C3_c2_0" index="0" allow="pedestrian" speed="1.00" length="32.00" width="4.00" shape="584.00,182.00 616.00,182.00"/>
    </edge>
    <edge id=":C3_c3" function="crossing" crossingEdges="link_C3_C2 link_C2_C3">
        <lane id=":C3_c3_0" index="0" allow="pedestrian" speed="1.00" length="32.00" width="4.00" shape="582.00,216.00 582.00,184.00"/>
    </edge>
    <edge id=":C3_w0" function="walkingarea">
        <lane id=":C3_w0_0" index="0" allow="pedestrian" speed="1.00" length="34.91" width="3.20" shape="584.00,220.00 587.20,220.00 587.20,220.00 590.40,220.00 590.40,220.00 593.60,220.00 593.60,220.00 596.80,220.00 596.80,220.00 600.00,220.00 600.00,220.00 603.20,220.00 603.20,220.00 606.40,220.00 606.40,220.00 609.60,220.00 609.60,220.00 612.80,220.00 612.80,220.00 616.00,220.00 620.00,216.00 620.00,212.80 620.00,212.80 620.00,209.60 620.00,209.60 620.00,206.40 620.00,206.40 620.00,203.20 620.00,203.20 620.00,200.00 620.00,200.00 620.00,196.80 620.00,196.80 620.00,193.60 620.00,193.60 620.00,190.40 620.00,190.40 620.00,187.20 620.00,187.20 620.00,184.00 616.00,180.00 612.80,180.00 612.80,180.00 609.60,180.00 609.60,180.00 606.40,180.00 606.40,180.00 603.20,180.00 603.20,180.00 600.00,180.00 600.00,180.00 596.80,180.00 596.80,180.00 593.60,180.00 593.60,180.00 590.40,180.00 590.40,180.00 587.20,180.00 587.20,180.00 584.00,180.00 580.00,184.00 580.00,187.20 580.00,187.20 580.00,190.40 580.00,190.40 580.00,193.60 580.00,193.60 580.00,196.80 580.00,196.80 580.00,200.00 580.00,200.00 580.00,203.20 580.00,203.20 580.00,206.40 580.00,206.40 580.00,209.60 580.00,209.60 580.00,212.80 580.00,212.80 580.00,216.00 583.89,218.78 583.56,217.78 583.00,217.00 582.22,216.44 581.22,216.11"/>
    </edge>
    <edge id=":C3_w1" function="walkingarea">
        <lane id=":C3_w1_0" index="0" allow="pedestrian" speed="1.00" length="2.83" width="4.00" shape="584.00,216.00 584.00,220.00 580.00,216.00 584.00,216.00"/>
    </edge>
    <edge id=":C3_w2" function="walkingarea">
        <lane id=":C3_w2_0" index="0" allow="pedestrian" speed="1.00" length="2.83" width="4.00" shape="616.00,216.00 620.00,216.00 616.00,220.00 616.00,216.00"/>
    </edge>
    <edge id=":C3_w3" function="walkingarea">
        <lane id=":C3_w3_0" index="0" allow="pedestrian" speed="1.00" length="2.83" width="4.00" shape="616.00,184.00 616.00,180.00 620.00,184.00 616.00,184.00"/>
    </edge>
    <edge id=":C3_w4" function="walkingarea">
        <lane id=":C3_w4_0" index="0" allow="pedestrian" speed="1.00" length="2.83" width="4.00" shape="584.00,184.00 580.00,184.00 584.00,180.00 584.00,184.00"/>
    </edge>
    <edge id=":C4_0" function="internal">
        <lane id=":C4_0_0" index="0" speed="9.26" length="15.31" shape="792.00,220.00 791.25,214.75 789.00,211.00 785.25,208.75 784.00,208.57"/>
    </edge>
    <edge id=":C4_1" function="internal">
        <lane id=":C4_1_0" index="0" speed="13.89" length="40.00" shape="792.00,220.00 792.00,180.00"/>
    </edge>
    <edge id=":C4_2" function="internal">
        <lane id=":C4_2_0" index="0" speed="10.36" length="20.47" shape="795.20,220.00 794.25,213.35 791.40,208.60 786.65,205.75 784.00,205.37"/>
    </edge>
    <edge id=":C4_3" function="internal">
        <lane id=":C4_3_0" index="0" speed="13.89" length="40.00" shape="795.20,220.00 795.20,180.00"/>
    </edge>
    <edge id=":C4_4" function="internal">
        <lane id=":C4_4_0" index="0" speed="12.28" length="30.79" shape="798.40,220.00 799.75,210.55 803.80,203.80 810.55,199.75 816.00,198.97"/>
    </edge>
    <edge id=":C4_20" function="internal">
        <lane id=":C4_20_0" index="0" speed="9.26" length="4.04" shape="784.00,208.57 780.00,208.00"/>
    </edge>
    <edge id=":C4_21" function="internal">
        <lane id=":C4_21_0" index="0" speed="10.36" length="4.04" shape="784.00,205.37 780.00,204.80"/>
    </edge>
    <edge id=":C4_22" function="internal">
        <lane id=":C4_22_0" index="0" speed="12.28" length="4.04" shape="816.00,198.97 820.00,198.40"/>
    </edge>
    <edge id=":C4_5" function="internal">
        <lane id=":C4_5_0" index="0" speed="9.26" length="15.31" shape="820.00,208.00 814.75,208.75 811.00,211.00 808.75,214.75 808.57,216.00"/>
    </edge>
    <edge id=":C4_6" function="internal">
        <lane id=":C4_6_0" index="0" speed="13.89" length="40.00" shape="820.00,208.00 780.00,208.00"/>
    </edge>
    <edge id=":C4_7" function="internal">
        <lane id=":C4_7_0" index="0" speed="10.36" length="20.47" shape="820.00,204.80 813.35,205.75 808.60,208.60 805.75,213.35 805.37,216.00"/>
    </edge>
    <edge id=":C4_8" function="internal">
        <lane id=":C4_8_0" index="0" speed="13.89" length="40.00" shape="820.00,204.80 780.00,204.80"/>
    </edge>
    <edge id=":C4_9" function="internal">
        <lane id=":C4_9_0" index="0" speed="12.28" length="30.79" shape="820.00,201.60 810.55,200.25 803.80,196.20 799.75,189.45 798.97,184.00"/>
    </edge>
    <edge id=":C4_23" function="internal">