<?xml version="1.0" encoding="UTF-8"?>

<!-- generated on 2023-05-17 14:53:28 by Eclipse SUMO duarouter Version v1_14_1+0127-b837c595ce7
<configuration>

    <input>
        <net-file value="corridor.net.xml"/>
        <route-files value="corridor.flow.xml"/>
    </input>

    <output>
        <output-file value="corridor.rou.xml"/>
    </output>

</configuration>
-->

<routes xmlns:xsi="http://www.w3.org/2001/XMLSchema-instance" xsi:noNamespaceSchemaLocation="http://sumo.dlr.de/xsd/routes_file.xsd">
    <vType id="type1" length="5.00" minGap="2.00" maxSpeed="60.00" vClass="passenger" carFollowModel="CC" decel="9" c1="0.5" xi="1" omegaN="0.2" tauEngine="0.5" lanesCount="2" ccAccel="1.5"/>
    <vehicle id="humandriver_1" type="type1" depart="1.00" departLane="0">
        <route edges="m01"/>
    </vehicle>
    <vType id="type2" length="5.00" minGap="2.00" maxSpeed="60.00" vClass="passenger" carFollowModel="CC" decel="9" c1="0.5" xi="1" omegaN="0.2" tauEngine="0.5" lanesCount="2" ccAccel="1.5"/>
    <vehicle id="platoon_2.0" type="type2" depart="1.50" departLane="1" departSpeed="25.00" color="red">
        <route edges="m43 m32 m21 m10"/>
    </vehicle>
    <vehicle id="humandriver_2" type="type1" depart="2.00" departLane="1">
        <route edges="m01"/>
    </vehicle>
    <vehicle id="humandriver_6" type="type1" depart="2.00" departLane="0">
        <route edges="n01"/>
    </vehicle>
    <vehicle id="platoon_16.0" type="type2" depart="2.50" departLane="1" departSpeed="25.00" color="red">
        <route edges="s43 s32 -E16 -E15 n21 n10"/>
    </vehicle>
    <vehicle id="platoon_2.1" type="type2" depart="2.50" departLane="1" departSpeed="25.00" color="red">
        <route edges="m43 m32 m21 m10"/>
    </vehicle>
    <vehicle id="humandriver_3" type="type1" depart="3.00" departLane="0">
        <route edges="m01"/>
    </vehicle>
    <vehicle id="humandriver_7" type="type1" depart="3.00" departLane="1">
        <route edges="n01"/>
    </vehicle>
    <vehicle id="humandriver_11" type="type1" depart="3.00" departLane="0">
        <route edges="s01"/>
    </vehicle>
    <vehicle id="platoon_16.1" type="type2" depart="3.50" departLane="1" departSpeed="25.00" color="red">
        <route edges="s43 s32 -E16 -E15 n21 n10"/>
    </vehicle>
    <vehicle id="platoon_18.0" type="type2" depart="3.50" departLane="1" departSpeed="25.00" color="red">
        <route edges="n43 E17 E18 s32 s21 s10"/>
    </vehicle>
    <vehicle id="platoon_2.2" type="type2" depart="3.50" departLane="1" departSpeed="25.00" color="red">
        <route edges="m43 m32 m21 m10"/>
    </vehicle>
    <vehicle id="humandriver_4" type="type1" depart="4.00" departLane="1">
        <route edges="m01"/>
    </vehicle>
    <vehicle id="humandriver_8" type="type1" depart="4.00" departLane="0">
        <route edges="n01"/>
    </vehicle>
    <vehicle id="humandriver_12" type="type1" depart="4.00" departLane="1">
        <route edges="s01"/>
    </vehicle>
    <vehicle id="platoon_16.2" type="type2" depart="4.50" departLane="1" departSpeed="25.00" color="red">
        <route edges="s43 s32 -E16 -E15 n21 n10"/>
    </vehicle>
    <vehicle id="platoon_18.1" type="type2" depart="4.50" departLane="1" departSpeed="25.00" color="red">
        <route edges="n43 E17 E18 s32 s21 s10"/>
    </vehicle>
    <vehicle id="platoon_2.3" type="type2" depart="4.50" departLane="1" departSpeed="25.00" color="red">
        <route edges="m43 m32 m21 m10"/>
    </vehicle>
    <vehicle id="humandriver_5" type="type1" depart="5.00" departLane="0">
        <route edges="m01"/>
    </vehicle>
    <vehicle id="humandriver_9" type="type1" depart="5.00" departLane="1">
        <route edges="n01"/>
    </vehicle>
    <vehicle id="humandriver_13" type="type1" depart="5.00" departLane="0">
        <route edges="s01"/>
    </vehicle>
    <vehicle id="platoon_16.3" type="type2" depart="5.50" departLane="1" departSpeed="25.00" color="red">
        <route edges="s43 s32 -E16 -E15 n21 n10"/>
    </vehicle>
    <vehicle id="platoon_18.2" type="type2" depart="5.50" departLane="1" departSpeed="25.00" color="red">
        <route edges="n43 E17 E18 s32 s21 s10"/>
    </vehicle>
    <vehicle id="platoon_2.4" type="type2" depart="5.50" departLane="1" departSpeed="25.00" color="red">
        <route edges="m43 m32 m21 m10"/>
    </vehicle>
    <vehicle id="humandriver_10" type="type1" depart="6.00" departLane="0">
        <route edges="n01"/>
    </vehicle>
    <vehicle id="humandriver_14" type="type1" depart="6.00" departLane="1">
        <route edges="s01"/>
    </vehicle>
    <vehicle id="platoon_16.4" type="type2" depart="6.50" departLane="1" departSpeed="25.00" color="red">
        <route edges="s43 s32 -E16 -E15 n21 n10"/>
    </vehicle>
    <vehicle id="platoon_18.3" type="type2" depart="6.50" departLane="1" departSpeed="25.00" color="red">
        <route edges="n43 E17 E18 s32 s21 s10"/>
    </vehicle>
    <vehicle id="humandriver_15" type="type1" depart="7.00" departLane="0">
        <route edges="s01"/>
    </vehicle>
    <vehicle id="platoon_18.4" type="type2" depart="7.50" departLane="1" departSpeed="25.00" color="red">
        <route edges="n43 E17 E18 s32 s21 s10"/>
    </vehicle>
    <vehicle id="humandriver_31" type="type1" depart="21.00" departLane="0">
        <route edges="m01"/>
    </vehicle>
    <vehicle id="platoon_6.0" type="type2" depart="21.50" departLane="1" departSpeed="25.00" color="red">
        <route edges="m43 m32 m21 m10"/>
    </vehicle>
    <vehicle id="humandriver_32" type="type1" depart="22.00" departLane="1">
        <route edges="m01"/>
    </vehicle>
    <vehicle id="humandriver_36" type="type1" depart="22.00" departLane="0">
        <route edges="n01"/>
    </vehicle>
    <vehicle id="platoon_32.0" type="type2" depart="22.50" departLane="1" departSpeed="25.00" color="red">
        <route edges="s43 s32 -E16 -E15 n21 n10"/>
    </vehicle>
    <vehicle id="platoon_6.1" type="type2" depart="22.50" departLane="1" departSpeed="25.00" color="red">
        <route edges="m43 m32 m21 m10"/>
    </vehicle>
    <vehicle id="humandriver_33" type="type1" depart="23.00" departLane="0">
        <route edges="m01"/>
    </vehicle>
    <vehicle id="humandriver_37" type="type1" depart="23.00" departLane="1">
        <route edges="n01"/>
    </vehicle>
    <vehicle id="humandriver_41" type="type1" depart="23.00" departLane="0">
        <route edges="s01"/>
    </vehicle>
    <vehicle id="platoon_32.1" type="type2" depart="23.50" departLane="1" departSpeed="25.00" color="red">
        <route edges="s43 s32 -E16 -E15 n21 n10"/>
    </vehicle>
    <vehicle id="platoon_34.0" type="type2" depart="23.50" departLane="1" departSpeed="25.00" color="red">
        <route edges="n43 E17 E18 s32 s21 s10"/>
    </vehicle>
    <vehicle id="platoon_6.2" type="type2" depart="23.50" departLane="1" departSpeed="25.00" color="red">
        <route edges="m43 m32 m21 m10"/>
    </vehicle>
    <vehicle id="humandriver_34" type="type1" depart="24.00" departLane="1">
        <route edges="m01"/>
    </vehicle>
    <vehicle id="humandriver_38" type="type1" depart="24.00" departLane="0">
        <route edges="n01"/>
    </vehicle>
    <vehicle id="humandriver_42" type="type1" depart="24.00" departLane="1">
        <route edges="s01"/>
    </vehicle>
    <vehicle id="platoon_32.2" type="type2" depart="24.50" departLane="1" departSpeed="25.00" color="red">
        <route edges="s43 s32 -E16 -E15 n21 n10"/>
    </vehicle>
    <vehicle id="platoon_34.1" type="type2" depart="24.50" departLane="1" departSpeed="25.00" color="red">
        <route edges="n43 E17 E18 s32 s21 s10"/>
    </vehicle>
    <vehicle id="platoon_6.3" type="type2" depart="24.50" departLane="1" departSpeed="25.00" color="red">
        <route edges="m43 m32 m21 m10"/>
    </vehicle>
    <vehicle id="humandriver_35" type="type1" depart="25.00" departLane="0">
        <route edges="m01"/>
    </vehicle>
    <vehicle id="humandriver_39" type="type1" depart="25.00" departLane="1">
        <route edges="n01"/>
    </vehicle>
    <vehicle id="humandriver_43" type="type1" depart="25.00" departLane="0">
        <route edges="s01"/>
    </vehicle>
    <vehicle id="platoon_32.3" type="type2" depart="25.50" departLane="1" departSpeed="25.00" color="red">
        <route edges="s43 s32 -E16 -E15 n21 n10"/>
    </vehicle>
    <vehicle id="platoon_34.2" type="type2" depart="25.50" departLane="1" departSpeed="25.00" color="red">
        <route edges="n43 E17 E18 s32 s21 s10"/>
    </vehicle>
    <vehicle id="platoon_6.4" type="type2" depart="25.50" departLane="1" departSpeed="25.00" color="red">
        <route edges="m43 m32 m21 m10"/>
    </vehicle>
    <vehicle id="humandriver_40" type="type1" depart="26.00" departLane="0">
        <route edges="n01"/>
    </vehicle>
    <vehicle id="humandriver_44" type="type1" depart="26.00" departLane="1">
        <route edges="s01"/>
    </vehicle>
    <vehicle id="platoon_32.4" type="type2" depart="26.50" departLane="1" departSpeed="25.00" color="red">
        <route edges="s43 s32 -E16 -E15 n21 n10"/>
    </vehicle>
    <vehicle id="platoon_34.3" type="type2" depart="26.50" departLane="1" departSpeed="25.00" color="red">
        <route edges="n43 E17 E18 s32 s21 s10"/>
    </vehicle>
    <vehicle id="humandriver_45" type="type1" depart="27.00" departLane="0">
        <route edges="s01"/>
    </vehicle>
    <vehicle id="platoon_34.4" type="type2" depart="27.50" departLane="1" departSpeed="25.00" color="red">
        <route edges="n43 E17 E18 s32 s21 s10"/>
    </vehicle>
    <vehicle id="humandriver_61" type="type1" depart="72.00" departLane="0">
        <route edges="m01"/>
    </vehicle>
    <vehicle id="platoon_10.0" type="type2" depart="72.50" departLane="1" departSpeed="25.00" color="red">
        <route edges="m43 m32 m21 m10"/>
    </vehicle>
    <vehicle id="humandriver_62" type="type1" depart="73.00" departLane="1">
        <route edges="m01"/>
    </vehicle>
    <vehicle id="humandriver_66" type="type1" depart="73.00" departLane="0">
        <route edges="n01"/>
    </vehicle>
    <vehicle id="platoon_10.1" type="type2" depart="73.50" departLane="1" departSpeed="25.00" color="red">
        <route edges="m43 m32 m21 m10"/>
    </vehicle>
    <vehicle id="platoon_48.0" type="type2" depart="73.50" departLane="1" departSpeed="25.00" color="red">
        <route edges="s43 s32 -E16 -E15 n21 n10"/>
    </vehicle>
    <vehicle id="humandriver_63" type="type1" depart="74.00" departLane="0">
        <route edges="m01"/>
    </vehicle>
    <vehicle id="humandriver_67" type="type1" depart="74.00" departLane="1">
        <route edges="n01"/>
    </vehicle>
    <vehicle id="humandriver_71" type="type1" depart="74.00" departLane="0">
        <route edges="s01"/>
    </vehicle>
    <vehicle id="platoon_10.2" type="type2" depart="74.50" departLane="1" departSpeed="25.00" color="red">
        <route edges="m43 m32 m21 m10"/>
    </vehicle>
    <vehicle id="platoon_48.1" type="type2" depart="74.50" departLane="1" departSpeed="25.00" color="red">
        <route edges="s43 s32 -E16 -E15 n21 n10"/>
    </vehicle>
    <vehicle id="platoon_50.0" type="type2" depart="74.50" departLane="1" departSpeed="25.00" color="red">
        <route edges="n43 E17 E18 s32 s21 s10"/>
    </vehicle>
    <vehicle id="humandriver_64" type="type1" depart="75.00" departLane="1">
        <route edges="m01"/>
    </vehicle>
    <vehicle id="humandriver_68" type="type1" depart="75.00" departLane="0">
        <route edges="n01"/>
    </vehicle>
    <vehicle id="humandriver_72" type="type1" depart="75.00" departLane="1">
        <route edges="s01"/>
    </vehicle>
    <vehicle id="platoon_10.3" type="type2" depart="75.50" departLane="1" departSpeed="25.00" color="red">
        <route edges="m43 m32 m21 m10"/>
    </vehicle>
    <vehicle id="platoon_48.2" type="type2" depart="75.50" departLane="1" departSpeed="25.00" color="red">
        <route edges="s43 s32 -E16 -E15 n21 n10"/>
    </vehicle>
    <vehicle id="platoon_50.1" type="type2" depart="75.50" departLane="1" departSpeed="25.00" color="red">
        <route edges="n43 E17 E18 s32 s21 s10"/>
    </vehicle>
    <vehicle id="humandriver_65" type="type1" depart="76.00" departLane="0">
        <route edges="m01"/>
    </vehicle>
    <vehicle id="humandriver_69" type="type1" depart="76.00" departLane="1">
        <route edges="n01"/>
    </vehicle>
    <vehicle id="humandriver_73" type="type1" depart="76.00" departLane="0">
        <route edges="s01"/>
    </vehicle>
    <vehicle id="platoon_10.4" type="type2" depart="76.50" departLane="1" departSpeed="25.00" color="red">
        <route edges="m43 m32 m21 m10"/>
    </vehicle>
    <vehicle id="platoon_48.3" type="type2" depart="76.50" departLane="1" departSpeed="25.00" color="red">
        <route edges="s43 s32 -E16 -E15 n21 n10"/>
    </vehicle>
    <vehicle id="platoon_50.2" type="type2" depart="76.50" departLane="1" departSpeed="25.00" color="red">
        <route edges="n43 E17 E18 s32 s21 s10"/>
    </vehicle>
    <vehicle id="humandriver_70" type="type1" depart="77.00" departLane="0">
        <route edges="n01"/>
    </vehicle>
    <vehicle id="humandriver_74" type="type1" depart="77.00" departLane="1">
        <route edges="s01"/>
    </vehicle>
    <vehicle id="platoon_48.4" type="type2" depart="77.50" departLane="1" departSpeed="25.00" color="red">
        <route edges="s43 s32 -E16 -E15 n21 n10"/>
    </vehicle>
    <vehicle id="platoon_50.3" type="type2" depart="77.50" departLane="1" departSpeed="25.00" color="red">
        <route edges="n43 E17 E18 s32 s21 s10"/>
    </vehicle>
    <vehicle id="humandriver_75" type="type1" depart="78.00" departLane="0">
        <route edges="s01"/>
    </vehicle>
    <vehicle id="platoon_50.4" type="type2" depart="78.50" departLane="1" departSpeed="25.00" color="red">
        <route edges="n43 E17 E18 s32 s21 s10"/>
    </vehicle>
</routes>
