<?xml version="1.0" encoding="UTF-8"?>

<!-- generated on 2022-07-15 15:56:39 by Eclipse SUMO netedit Version v1_11_0+0421-96d1c786f0c
<configuration xmlns:xsi="http://www.w3.org/2001/XMLSchema-instance" xsi:noNamespaceSchemaLocation="http://sumo.dlr.de/xsd/netconvertConfiguration.xsd">

    <input>
        <sumo-net-file value="/home/hang/DRL/DRL_5-23-2022/C3PO_DRL_PLAT_CTR-master/maps/SingleIntersection/network_scale/corridor.net.xml"/>
    </input>

    <output>
        <output-file value="/home/hang/DRL/DRL_5-23-2022/C3PO_DRL_PLAT_CTR-master/maps/SingleIntersection/network_scale/corridor.net.xml"/>
    </output>

    <processing>
        <geometry.min-radius.fix.railways value="false"/>
        <geometry.max-grade.fix value="false"/>
        <offset.disable-normalization value="true"/>
        <lefthand value="false"/>
    </processing>

    <junctions>
        <no-turnarounds value="true"/>
        <junctions.corner-detail value="5"/>
        <junctions.limit-turn-speed value="5.5"/>
        <rectangular-lane-cut value="false"/>
    </junctions>

    <pedestrian>
        <walkingareas value="false"/>
    </pedestrian>

    <report>
        <aggregate-warnings value="5"/>
    </report>

</configuration>
-->

<net version="1.9" junctionCornerDetail="5" limitTurnSpeed="5.50" xmlns:xsi="http://www.w3.org/2001/XMLSchema-instance" xsi:noNamespaceSchemaLocation="http://sumo.dlr.de/xsd/net_file.xsd">

    <location netOffset="0.00,0.00" convBoundary="-300.00,-450.00,500.00,450.00" origBoundary="-10000000000.00,-10000000000.00,10000000000.00,10000000000.00" projParameter="!"/>

    <edge id=":m1_0" function="internal">
        <lane id=":m1_0_0" index="0" speed="6.51" length="9.03" shape="-104.80,10.40 -105.15,7.95 -106.20,6.20 -107.95,5.15 -110.40,4.80"/>
    </edge>
    <edge id=":m1_1" function="internal">
        <lane id=":m1_1_0" index="0" speed="13.89" length="20.80" shape="-104.80,10.40 -104.80,-10.40"/>
        <lane id=":m1_1_1" index="1" speed="13.89" length="20.80" shape="-101.60,10.40 -101.60,-10.40"/>
    </edge>
    <edge id=":m1_3" function="internal">
        <lane id=":m1_3_0" index="0" speed="9.26" length="6.96" shape="-101.60,10.40 -100.85,5.15 -100.00,3.73"/>
    </edge>
    <edge id=":m1_16" function="internal">
        <lane id=":m1_16_0" index="0" speed="9.26" length="12.40" shape="-100.00,3.73 -98.60,1.40 -94.85,-0.85 -89.60,-1.60"/>
    </edge>
    <edge id=":m1_4" function="internal">
        <lane id=":m1_4_0" index="0" speed="6.51" length="9.03" shape="-89.60,4.80 -92.05,5.15 -93.80,6.20 -94.85,7.95 -95.20,10.40"/>
    </edge>
    <edge id=":m1_5" function="internal">
        <lane id=":m1_5_0" index="0" speed="13.89" length="20.80" shape="-89.60,4.80 -110.40,4.80"/>
        <lane id=":m1_5_1" index="1" speed="13.89" length="20.80" shape="-89.60,1.60 -110.40,1.60"/>
    </edge>
    <edge id=":m1_7" function="internal">
        <lane id=":m1_7_0" index="0" speed="9.26" length="19.35" shape="-89.60,1.60 -94.85,0.85 -98.60,-1.40 -100.85,-5.15 -101.60,-10.40"/>
    </edge>
    <edge id=":m1_8" function="internal">
        <lane id=":m1_8_0" index="0" speed="6.51" length="9.03" shape="-95.20,-10.40 -94.85,-7.95 -93.80,-6.20 -92.05,-5.15 -89.60,-4.80"/>
    </edge>
    <edge id=":m1_9" function="internal">
        <lane id=":m1_9_0" index="0" speed="13.89" length="20.80" shape="-95.20,-10.40 -95.20,10.40"/>
        <lane id=":m1_9_1" index="1" speed="13.89" length="20.80" shape="-98.40,-10.40 -98.40,10.40"/>
    </edge>
    <edge id=":m1_11" function="internal">
        <lane id=":m1_11_0" index="0" speed="9.26" length="6.96" shape="-98.40,-10.40 -99.15,-5.15 -100.00,-3.73"/>
    </edge>
    <edge id=":m1_17" function="internal">
        <lane id=":m1_17_0" index="0" speed="9.26" length="12.40" shape="-100.00,-3.73 -101.40,-1.40 -105.15,0.85 -110.40,1.60"/>
    </edge>
    <edge id=":m1_12" function="internal">
        <lane id=":m1_12_0" index="0" speed="6.51" length="9.03" shape="-110.40,-4.80 -107.95,-5.15 -106.20,-6.20 -105.15,-7.95 -104.80,-10.40"/>
    </edge>
    <edge id=":m1_13" function="internal">
        <lane id=":m1_13_0" index="0" speed="13.89" length="20.80" shape="-110.40,-4.80 -89.60,-4.80"/>
        <lane id=":m1_13_1" index="1" speed="13.89" length="20.80" shape="-110.40,-1.60 -89.60,-1.60"/>
    </edge>
    <edge id=":m1_15" function="internal">
        <lane id=":m1_15_0" index="0" speed="9.26" length="19.35" shape="-110.40,-1.60 -105.15,-0.85 -101.40,1.40 -99.15,5.15 -98.40,10.40"/>
    </edge>
    <edge id=":m2_0" function="internal">
        <lane id=":m2_0_0" index="0" speed="6.51" length="9.03" shape="95.20,10.40 94.85,7.95 93.80,6.20 92.05,5.15 89.60,4.80"/>
    </edge>
    <edge id=":m2_1" function="internal">
        <lane id=":m2_1_0" index="0" speed="13.89" length="20.80" shape="95.20,10.40 95.20,-10.40"/>
        <lane id=":m2_1_1" index="1" speed="13.89" length="20.80" shape="98.40,10.40 98.40,-10.40"/>
    </edge>
    <edge id=":m2_3" function="internal">
        <lane id=":m2_3_0" index="0" speed="9.26" length="6.96" shape="98.40,10.40 99.15,5.15 100.00,3.73"/>
    </edge>
    <edge id=":m2_16" function="internal">
        <lane id=":m2_16_0" index="0" speed="9.26" length="12.40" shape="100.00,3.73 101.40,1.40 105.15,-0.85 110.40,-1.60"/>
    </edge>
    <edge id=":m2_4" function="internal">
        <lane id=":m2_4_0" index="0" speed="6.51" length="9.03" shape="110.40,4.80 107.95,5.15 106.20,6.20 105.15,7.95 104.80,10.40"/>
    </edge>
    <edge id=":m2_5" function="internal">
        <lane id=":m2_5_0" index="0" speed="13.89" length="20.80" shape="110.40,4.80 89.60,4.80"/>
        <lane id=":m2_5_1" index="1" speed="13.89" length="20.80" shape="110.40,1.60 89.60,1.60"/>
    </edge>
    <edge id=":m2_7" function="internal">
        <lane id=":m2_7_0" index="0" speed="9.26" length="6.96" shape="110.40,1.60 105.15,0.85 103.73,-0.00"/>
    </edge>
    <edge id=":m2_17" function="internal">
        <lane id=":m2_17_0" index="0" speed="9.26" length="12.40" shape="103.73,-0.00 101.40,-1.40 99.15,-5.15 98.40,-10.40"/>
    </edge>
    <edge id=":m2_8" function="internal">
        <lane id=":m2_8_0" index="0" speed="6.51" length="9.03" shape="104.80,-10.40 105.15,-7.95 106.20,-6.20 107.95,-5.15 110.40,-4.80"/>
    </edge>
    <edge id=":m2_9" function="internal">
        <lane id=":m2_9_0" index="0" speed="13.89" length="20.80" shape="104.80,-10.40 104.80,10.40"/>
        <lane id=":m2_9_1" index="1" speed="13.89" length="20.80" shape="101.60,-10.40 101.60,10.40"/>
    </edge>
    <edge id=":m2_11" function="internal">
        <lane id=":m2_11_0" index="0" speed="9.26" length="6.96" shape="101.60,-10.40 100.85,-5.15 100.00,-3.73"/>
    </edge>
    <edge id=":m2_18" function="internal">
        <lane id=":m2_18_0" index="0" speed="9.26" length="12.40" shape="100.00,-3.73 98.60,-1.40 94.85,0.85 89.60,1.60"/>
    </edge>
    <edge id=":m2_12" function="internal">
        <lane id=":m2_12_0" index="0" speed="6.51" length="9.03" shape="89.60,-4.80 92.05,-5.15 93.80,-6.20 94.85,-7.95 95.20,-10.40"/>
    </edge>
    <edge id=":m2_13" function="internal">
        <lane id=":m2_13_0" index="0" speed="13.89" length="20.80" shape="89.60,-4.80 110.40,-4.80"/>
        <lane id=":m2_13_1" index="1" speed="13.89" length="20.80" shape="89.60,-1.60 110.40,-1.60"/>
    </edge>
    <edge id=":m2_15" function="internal">
        <lane id=":m2_15_0" index="0" speed="9.26" length="6.96" shape="89.60,-1.60 94.85,-0.85 96.27,0.00"/>
    </edge>
    <edge id=":m2_19" function="internal">
        <lane id=":m2_19_0" index="0" speed="9.26" length="12.40" shape="96.27,0.00 98.60,1.40 100.85,5.15 101.60,10.40"/>
    </edge>
    <edge id=":m3_0" function="internal">
        <lane id=":m3_0_0" index="0" speed="6.51" length="9.03" shape="295.20,10.40 294.85,7.95 293.80,6.20 292.05,5.15 289.60,4.80"/>
    </edge>
    <edge id=":m3_1" function="internal">
        <lane id=":m3_1_0" index="0" speed="13.89" length="20.80" shape="295.20,10.40 295.20,-10.40"/>
        <lane id=":m3_1_1" index="1" speed="13.89" length="20.80" shape="298.40,10.40 298.40,-10.40"/>
    </edge>
    <edge id=":m3_3" function="internal">
        <lane id=":m3_3_0" index="0" speed="9.26" length="6.96" shape="298.40,10.40 299.15,5.15 300.00,3.73"/>
    </edge>
    <edge id=":m3_16" function="internal">
        <lane id=":m3_16_0" index="0" speed="9.26" length="12.40" shape="300.00,3.73 301.40,1.40 305.15,-0.85 310.40,-1.60"/>
    </edge>
    <edge id=":m3_4" function="internal">
        <lane id=":m3_4_0" index="0" speed="6.51" length="9.03" shape="310.40,4.80 307.95,5.15 306.20,6.20 305.15,7.95 304.80,10.40"/>
    </edge>
    <edge id=":m3_5" function="internal">
        <lane id=":m3_5_0" index="0" speed="13.89" length="20.80" shape="310.40,4.80 289.60,4.80"/>
        <lane id=":m3_5_1" index="1" speed="13.89" length="20.80" shape="310.40,1.60 289.60,1.60"/>
    </edge>
    <edge id=":m3_7" function="internal">
        <lane id=":m3_7_0" index="0" speed="9.26" length="6.96" shape="310.40,1.60 305.15,0.85 303.73,-0.00"/>
    </edge>
    <edge id=":m3_17" function="internal">
        <lane id=":m3_17_0" index="0" speed="9.26" length="12.40" shape="303.73,-0.00 301.40,-1.40 299.15,-5.15 298.40,-10.40"/>
    </edge>
    <edge id=":m3_8" function="internal">
        <lane id=":m3_8_0" index="0" speed="6.51" length="9.03" shape="304.80,-10.40 305.15,-7.95 306.20,-6.20 307.95,-5.15 310.40,-4.80"/>
    </edge>
    <edge id=":m3_9" function="internal">
        <lane id=":m3_9_0" index="0" speed="13.89" length="20.80" shape="304.80,-10.40 304.80,10.40"/>
        <lane id=":m3_9_1" index="1" speed="13.89" length="20.80" shape="301.60,-10.40 301.60,10.40"/>
    </edge>
    <edge id=":m3_11" function="internal">
        <lane id=":m3_11_0" index="0" speed="9.26" length="6.96" shape="301.60,-10.40 300.85,-5.15 300.00,-3.73"/>
    </edge>
    <edge id=":m3_18" function="internal">
        <lane id=":m3_18_0" index="0" speed="9.26" length="12.40" shape="300.00,-3.73 298.60,-1.40 294.85,0.85 289.60,1.60"/>
    </edge>
    <edge id=":m3_12" function="internal">
        <lane id=":m3_12_0" index="0" speed="6.51" length="9.03" shape="289.60,-4.80 292.05,-5.15 293.80,-6.20 294.85,-7.95 295.20,-10.40"/>
    </edge>
    <edge id=":m3_13" function="internal">
        <lane id=":m3_13_0" index="0" speed="13.89" length="20.80" shape="289.60,-4.80 310.40,-4.80"/>
        <lane id=":m3_13_1" index="1" speed="13.89" length="20.80" shape="289.60,-1.60 310.40,-1.60"/>
    </edge>
    <edge id=":m3_15" function="internal">
        <lane id=":m3_15_0" index="0" speed="9.26" length="6.96" shape="289.60,-1.60 294.85,-0.85 296.27,0.00"/>
    </edge>
    <edge id=":m3_19" function="internal">
        <lane id=":m3_19_0" index="0" speed="9.26" length="12.40" shape="296.27,0.00 298.60,1.40 300.85,5.15 301.60,10.40"/>
    </edge>
    <edge id=":n1_0" function="internal">
        <lane id=":n1_0_0" index="0" speed="6.51" length="9.03" shape="-104.80,210.40 -105.15,207.95 -106.20,206.20 -107.95,205.15 -110.40,204.80"/>
    </edge>
    <edge id=":n1_1" function="internal">
        <lane id=":n1_1_0" index="0" speed="13.89" length="20.80" shape="-104.80,210.40 -104.80,189.60"/>
        <lane id=":n1_1_1" index="1" speed="13.89" length="20.80" shape="-101.60,210.40 -101.60,189.60"/>
    </edge>
    <edge id=":n1_3" function="internal">
        <lane id=":n1_3_0" index="0" speed="9.26" length="6.96" shape="-101.60,210.40 -100.85,205.15 -100.00,203.73"/>
    </edge>
    <edge id=":n1_16" function="internal">
        <lane id=":n1_16_0" index="0" speed="9.26" length="12.40" shape="-100.00,203.73 -98.60,201.40 -94.85,199.15 -89.60,198.40"/>
    </edge>
    <edge id=":n1_4" function="internal">
        <lane id=":n1_4_0" index="0" speed="6.51" length="9.03" shape="-89.60,204.80 -92.05,205.15 -93.80,206.20 -94.85,207.95 -95.20,210.40"/>
    </edge>
    <edge id=":n1_5" function="internal">
        <lane id=":n1_5_0" index="0" speed="13.89" length="20.80" shape="-89.60,204.80 -110.40,204.80"/>
        <lane id=":n1_5_1" index="1" speed="13.89" length="20.80" shape="-89.60,201.60 -110.40,201.60"/>
    </edge>
    <edge id=":n1_7" function="internal">
        <lane id=":n1_7_0" index="0" speed="9.26" length="6.96" shape="-89.60,201.60 -94.85,200.85 -96.27,200.00"/>
    </edge>
    <edge id=":n1_17" function="internal">
        <lane id=":n1_17_0" index="0" speed="9.26" length="12.40" shape="-96.27,200.00 -98.60,198.60 -100.85,194.85 -101.60,189.60"/>
    </edge>
    <edge id=":n1_8" function="internal">
        <lane id=":n1_8_0" index="0" speed="6.51" length="9.03" shape="-95.20,189.60 -94.85,192.05 -93.80,193.80 -92.05,194.85 -89.60,195.20"/>
    </edge>
    <edge id=":n1_9" function="internal">
        <lane id=":n1_9_0" index="0" speed="13.89" length="20.80" shape="-95.20,189.60 -95.20,210.40"/>
        <lane id=":n1_9_1" index="1" speed="13.89" length="20.80" shape="-98.40,189.60 -98.40,210.40"/>
    </edge>
    <edge id=":n1_11" function="internal">
        <lane id=":n1_11_0" index="0" speed="9.26" length="6.96" shape="-98.40,189.60 -99.15,194.85 -100.00,196.27"/>
    </edge>
    <edge id=":n1_18" function="internal">
        <lane id=":n1_18_0" index="0" speed="9.26" length="12.40" shape="-100.00,196.27 -101.40,198.60 -105.15,200.85 -110.40,201.60"/>
    </edge>
    <edge id=":n1_12" function="internal">
        <lane id=":n1_12_0" index="0" speed="6.51" length="9.03" shape="-110.40,195.20 -107.95,194.85 -106.20,193.80 -105.15,192.05 -104.80,189.60"/>
    </edge>
    <edge id=":n1_13" function="internal">
        <lane id=":n1_13_0" index="0" speed="13.89" length="20.80" shape="-110.40,195.20 -89.60,195.20"/>
        <lane id=":n1_13_1" index="1" speed="13.89" length="20.80" shape="-110.40,198.40 -89.60,198.40"/>
    </edge>
    <edge id=":n1_15" function="internal">
        <lane id=":n1_15_0" index="0" speed="9.26" length="6.96" shape="-110.40,198.40 -105.15,199.15 -103.73,200.00"/>
    </edge>
    <edge id=":n1_19" function="internal">
        <lane id=":n1_19_0" index="0" speed="9.26" length="12.40" shape="-103.73,200.00 -101.40,201.40 -99.15,205.15 -98.40,210.40"/>
    </edge>
    <edge id=":n2_0" function="internal">
        <lane id=":n2_0_0" index="0" speed="6.51" length="9.03" shape="95.20,210.40 94.85,207.95 93.80,206.20 92.05,205.15 89.60,204.80"/>
    </edge>
    <edge id=":n2_1" function="internal">
        <lane id=":n2_1_0" index="0" speed="13.89" length="20.80" shape="95.20,210.40 95.20,189.60"/>
        <lane id=":n2_1_1" index="1" speed="13.89" length="20.80" shape="98.40,210.40 98.40,189.60"/>
    </edge>
    <edge id=":n2_3" function="internal">
        <lane id=":n2_3_0" index="0" speed="9.26" length="6.96" shape="98.40,210.40 99.15,205.15 100.00,203.73"/>
    </edge>
    <edge id=":n2_16" function="internal">
        <lane id=":n2_16_0" index="0" speed="9.26" length="12.40" shape="100.00,203.73 101.40,201.40 105.15,199.15 110.40,198.40"/>
    </edge>
    <edge id=":n2_4" function="internal">
        <lane id=":n2_4_0" index="0" speed="6.51" length="9.03" shape="110.40,204.80 107.95,205.15 106.20,206.20 105.15,207.95 104.80,210.40"/>
    </edge>
    <edge id=":n2_5" function="internal">
        <lane id=":n2_5_0" index="0" speed="13.89" length="20.80" shape="110.40,204.80 89.60,204.80"/>
        <lane id=":n2_5_1" index="1" speed="13.89" length="20.80" shape="110.40,201.60 89.60,201.60"/>
    </edge>
    <edge id=":n2_7" function="internal">
        <lane id=":n2_7_0" index="0" speed="9.26" length="6.96" shape="110.40,201.60 105.15,200.85 103.73,200.00"/>
    </edge>
    <edge id=":n2_17" function="internal">
        <lane id=":n2_17_0" index="0" speed="9.26" length="12.40" shape="103.73,200.00 101.40,198.60 99.15,194.85 98.40,189.60"/>
    </edge>
    <edge id=":n2_8" function="internal">
        <lane id=":n2_8_0" index="0" speed="6.51" length="9.03" shape="104.80,189.60 105.15,192.05 106.20,193.80 107.95,194.85 110.40,195.20"/>
    </edge>
    <edge id=":n2_9" function="internal">
        <lane id=":n2_9_0" index="0" speed="13.89" length="20.80" shape="104.80,189.60 104.80,210.40"/>
        <lane id=":n2_9_1" index="1" speed="13.89" length="20.80" shape="101.60,189.60 101.60,210.40"/>
    </edge>
    <edge id=":n2_11" function="internal">
        <lane id=":n2_11_0" index="0" speed="9.26" length="6.96" shape="101.60,189.60 100.85,194.85 100.00,196.27"/>
    </edge>
    <edge id=":n2_18" function="internal">
        <lane id=":n2_18_0" index="0" speed="9.26" length="12.40" shape="100.00,196.27 98.60,198.60 94.85,200.85 89.60,201.60"/>
    </edge>
    <edge id=":n2_12" function="internal">
        <lane id=":n2_12_0" index="0" speed="6.51" length="9.03" shape="89.60,195.20 92.05,194.85 93.80,193.80 94.85,192.05 95.20,189.60"/>
    </edge>
    <edge id=":n2_13" function="internal">
        <lane id=":n2_13_0" index="0" speed="13.89" length="20.80" shape="89.60,195.20 110.40,195.20"/>
        <lane id=":n2_13_1" index="1" speed="13.89" length="20.80" shape="89.60,198.40 110.40,198.40"/>
    </edge>
    <edge id=":n2_15" function="internal">
        <lane id=":n2_15_0" index="0" speed="9.26" length="6.96" shape="89.60,198.40 94.85,199.15 96.27,200.00"/>
    </edge>
    <edge id=":n2_19" function="internal">
        <lane id=":n2_19_0" index="0" speed="9.26" length="12.40" shape="96.27,200.00 98.60,201.40 100.85,205.15 101.60,210.40"/>
    </edge>
    <edge id=":n3_0" function="internal">
        <lane id=":n3_0_0" index="0" speed="6.51" length="9.03" shape="295.20,210.40 294.85,207.95 293.80,206.20 292.05,205.15 289.60,204.80"/>
    </edge>
    <edge id=":n3_1" function="internal">
        <lane id=":n3_1_0" index="0" speed="13.89" length="20.80" shape="295.20,210.40 295.20,189.60"/>
        <lane id=":n3_1_1" index="1" speed="13.89" length="20.80" shape="298.40,210.40 298.40,189.60"/>
    </edge>
    <edge id=":n3_3" function="internal">
        <lane id=":n3_3_0" index="0" speed="9.26" length="6.96" shape="298.40,210.40 299.15,205.15 300.00,203.73"/>
    </edge>
    <edge id=":n3_16" function="internal">
        <lane id=":n3_16_0" index="0" speed="9.26" length="12.40" shape="300.00,203.73 301.40,201.40 305.15,199.15 310.40,198.40"/>
    </edge>
    <edge id=":n3_4" function="internal">
        <lane id=":n3_4_0" index="0" speed="6.51" length="9.03" shape="310.40,204.80 307.95,205.15 306.20,206.20 305.15,207.95 304.80,210.40"/>
    </edge>
    <edge id=":n3_5" function="internal">
        <lane id=":n3_5_0" index="0" speed="13.89" length="20.80" shape="310.40,204.80 289.60,204.80"/>
        <lane id=":n3_5_1" index="1" speed="13.89" length="20.80" shape="310.40,201.60 289.60,201.60"/>
    </edge>
    <edge id=":n3_7" function="internal">
        <lane id=":n3_7_0" index="0" speed="9.26" length="6.96" shape="310.40,201.60 305.15,200.85 303.73,200.00"/>
    </edge>
    <edge id=":n3_17" function="internal">
        <lane id=":n3_17_0" index="0" speed="9.26" length="12.40" shape="303.73,200.00 301.40,198.60 299.15,194.85 298.40,189.60"/>
    </edge>
    <edge id=":n3_8" function="internal">
        <lane id=":n3_8_0" index="0" speed="6.51" length="9.03" shape="304.80,189.60 305.15,192.05 306.20,193.80 307.95,194.85 310.40,195.20"/>
    </edge>
    <edge id=":n3_9" function="internal">
        <lane id=":n3_9_0" index="0" speed="13.89" length="20.80" shape="304.80,189.60 304.80,210.40"/>
        <lane id=":n3_9_1" index="1" speed="13.89" length="20.80" shape="301.60,189.60 301.60,210.40"/>
    </edge>
    <edge id=":n3_11" function="internal">
        <lane id=":n3_11_0" index="0" speed="9.26" length="6.96" shape="301.60,189.60 300.85,194.85 300.00,196.27"/>
    </edge>
    <edge id=":n3_18" function="internal">
        <lane id=":n3_18_0" index="0" speed="9.26" length="12.40" shape="300.00,196.27 298.60,198.60 294.85,200.85 289.60,201.60"/>
    </edge>
    <edge id=":n3_12" function="internal">
        <lane id=":n3_12_0" index="0" speed="6.51" length="9.03" shape="289.60,195.20 292.05,194.85 293.80,193.80 294.85,192.05 295.20,189.60"/>
    </edge>
    <edge id=":n3_13" function="internal">
        <lane id=":n3_13_0" index="0" speed="13.89" length="20.80" shape="289.60,195.20 310.40,195.20"/>
        <lane id=":n3_13_1" index="1" speed="13.89" length="20.80" shape="289.60,198.40 310.40,198.40"/>
    </edge>
    <edge id=":n3_15" function="internal">
        <lane id=":n3_15_0" index="0" speed="9.26" length="6.96" shape="289.60,198.40 294.85,199.15 296.27,200.00"/>
    </edge>
    <edge id=":n3_19" function="internal">
        <lane id=":n3_19_0" index="0" speed="9.26" length="12.40" shape="296.27,200.00 298.60,201.40 300.85,205.15 301.60,210.40"/>
    </edge>
    <edge id=":s1_0" function="internal">
        <lane id=":s1_0_0" index="0" speed="6.51" length="9.03" shape="-104.80,-189.60 -105.15,-192.05 -106.20,-193.80 -107.95,-194.85 -110.40,-195.20"/>
    </edge>
    <edge id=":s1_1" function="internal">
        <lane id=":s1_1_0" index="0" speed="13.89" length="20.80" shape="-104.80,-189.60 -104.80,-210.40"/>
        <lane id=":s1_1_1" index="1" speed="13.89" length="20.80" shape="-101.60,-189.60 -101.60,-210.40"/>
    </edge>
    <edge id=":s1_3" function="internal">
        <lane id=":s1_3_0" index="0" speed="9.26" length="6.96" shape="-101.60,-189.60 -100.85,-194.85 -100.00,-196.27"/>
    </edge>
    <edge id=":s1_16" function="internal">
        <lane id=":s1_16_0" index="0" speed="9.26" length="12.40" shape="-100.00,-196.27 -98.60,-198.60 -94.85,-200.85 -89.60,-201.60"/>
    </edge>
    <edge id=":s1_4" function="internal">
        <lane id=":s1_4_0" index="0" speed="6.51" length="9.03" shape="-89.60,-195.20 -92.05,-194.85 -93.80,-193.80 -94.85,-192.05 -95.20,-189.60"/>
    </edge>
    <edge id=":s1_5" function="internal">
        <lane id=":s1_5_0" index="0" speed="13.89" length="20.80" shape="-89.60,-195.20 -110.40,-195.20"/>
        <lane id=":s1_5_1" index="1" speed="13.89" length="20.80" shape="-89.60,-198.40 -110.40,-198.40"/>
    </edge>
    <edge id=":s1_7" function="internal">
        <lane id=":s1_7_0" index="0" speed="9.26" length="6.96" shape="-89.60,-198.40 -94.85,-199.15 -96.27,-200.00"/>
    </edge>
    <edge id=":s1_17" function="internal">
        <lane id=":s1_17_0" index="0" speed="9.26" length="12.40" shape="-96.27,-200.00 -98.60,-201.40 -100.85,-205.15 -101.60,-210.40"/>
    </edge>
    <edge id=":s1_8" function="internal">
        <lane id=":s1_8_0" index="0" speed="6.51" length="9.03" shape="-95.20,-210.40 -94.85,-207.95 -93.80,-206.20 -92.05,-205.15 -89.60,-204.80"/>
    </edge>
    <edge id=":s1_9" function="internal">
        <lane id=":s1_9_0" index="0" speed="13.89" length="20.80" shape="-95.20,-210.40 -95.20,-189.60"/>
        <lane id=":s1_9_1" index="1" speed="13.89" length="20.80" shape="-98.40,-210.40 -98.40,-189.60"/>
    </edge>
    <edge id=":s1_11" function="internal">
        <lane id=":s1_11_0" index="0" speed="9.26" length="6.96" shape="-98.40,-210.40 -99.15,-205.15 -100.00,-203.73"/>
    </edge>
    <edge id=":s1_18" function="internal">
        <lane id=":s1_18_0" index="0" speed="9.26" length="12.40" shape="-100.00,-203.73 -101.40,-201.40 -105.15,-199.15 -110.40,-198.40"/>
    </edge>
    <edge id=":s1_12" function="internal">
        <lane id=":s1_12_0" index="0" speed="6.51" length="9.03" shape="-110.40,-204.80 -107.95,-205.15 -106.20,-206.20 -105.15,-207.95 -104.80,-210.40"/>
    </edge>
    <edge id=":s1_13" function="internal">
        <lane id=":s1_13_0" index="0" speed="13.89" length="20.80" shape="-110.40,-204.80 -89.60,-204.80"/>
        <lane id=":s1_13_1" index="1" speed="13.89" length="20.80" shape="-110.40,-201.60 -89.60,-201.60"/>
    </edge>
    <edge id=":s1_15" function="internal">
        <lane id=":s1_15_0" index="0" speed="9.26" length="6.96" shape="-110.40,-201.60 -105.15,-200.85 -103.73,-200.00"/>
    </edge>
    <edge id=":s1_19" function="internal">
        <lane id=":s1_19_0" index="0" speed="9.26" length="12.40" shape="-103.73,-200.00 -101.40,-198.60 -99.15,-194.85 -98.40,-189.60"/>
    </edge>
    <edge id=":s2_0" function="internal">
        <lane id=":s2_0_0" index="0" speed="6.51" length="9.03" shape="95.20,-189.60 94.85,-192.05 93.80,-193.80 92.05,-194.85 89.60,-195.20"/>
    </edge>
    <edge id=":s2_1" function="internal">
        <lane id=":s2_1_0" index="0" speed="13.89" length="20.80" shape="95.20,-189.60 95.20,-210.40"/>
        <lane id=":s2_1_1" index="1" speed="13.89" length="20.80" shape="98.40,-189.60 98.40,-210.40"/>
    </edge>
    <edge id=":s2_3" function="internal">
        <lane id=":s2_3_0" index="0" speed="9.26" length="6.96" shape="98.40,-189.60 99.15,-194.85 100.00,-196.27"/>
    </edge>
    <edge id=":s2_16" function="internal">
        <lane id=":s2_16_0" index="0" speed="9.26" length="12.40" shape="100.00,-196.27 101.40,-198.60 105.15,-200.85 110.40,-201.60"/>
    </edge>
    <edge id=":s2_4" function="internal">
        <lane id=":s2_4_0" index="0" speed="6.51" length="9.03" shape="110.40,-195.20 107.95,-194.85 106.20,-193.80 105.15,-192.05 104.80,-189.60"/>
    </edge>
    <edge id=":s2_5" function="internal">
        <lane id=":s2_5_0" index="0" speed="13.89" length="20.80" shape="110.40,-195.20 89.60,-195.20"/>
        <lane id=":s2_5_1" index="1" speed="13.89" length="20.80" shape="110.40,-198.40 89.60,-198.40"/>
    </edge>
    <edge id=":s2_7" function="internal">
        <lane id=":s2_7_0" index="0" speed="9.26" length="6.96" shape="110.40,-198.40 105.15,-199.15 103.73,-200.00"/>
    </edge>
    <edge id=":s2_17" function="internal">
        <lane id=":s2_17_0" index="0" speed="9.26" length="12.40" shape="103.73,-200.00 101.40,-201.40 99.15,-205.15 98.40,-210.40"/>
    </edge>
    <edge id=":s2_8" function="internal">
        <lane id=":s2_8_0" index="0" speed="6.51" length="9.03" shape="104.80,-210.40 105.15,-207.95 106.20,-206.20 107.95,-205.15 110.40,-204.80"/>
    </edge>
    <edge id=":s2_9" function="internal">
        <lane id=":s2_9_0" index="0" speed="13.89" length="20.80" shape="104.80,-210.40 104.80,-189.60"/>
        <lane id=":s2_9_1" index="1" speed="13.89" length="20.80" shape="101.60,-210.40 101.60,-189.60"/>
    </edge>
    <edge id=":s2_11" function="internal">
        <lane id=":s2_11_0" index="0" speed="9.26" length="6.96" shape="101.60,-210.40 100.85,-205.15 100.00,-203.73"/>
    </edge>
    <edge id=":s2_18" function="internal">
        <lane id=":s2_18_0" index="0" speed="9.26" length="12.40" shape="100.00,-203.73 98.60,-201.40 94.85,-199.15 89.60,-198.40"/>
    </edge>
    <edge id=":s2_12" function="internal">
        <lane id=":s2_12_0" index="0" speed="6.51" length="9.03" shape="89.60,-204.80 92.05,-205.15 93.80,-206.20 94.85,-207.95 95.20,-210.40"/>
    </edge>
    <edge id=":s2_13" function="internal">
        <lane id=":s2_13_0" index="0" speed="13.89" length="20.80" shape="89.60,-204.80 110.40,-204.80"/>
        <lane id=":s2_13_1" index="1" speed="13.89" length="20.80" shape="89.60,-201.60 110.40,-201.60"/>
    </edge>
    <edge id=":s2_15" function="internal">
        <lane id=":s2_15_0" index="0" speed="9.26" length="6.96" shape="89.60,-201.60 94.85,-200.85 96.27,-200.00"/>
    </edge>
    <edge id=":s2_19" function="internal">
        <lane id=":s2_19_0" index="0" speed="9.26" length="12.40" shape="96.27,-200.00 98.60,-198.60 100.85,-194.85 101.60,-189.60"/>
    </edge>
    <edge id=":s3_0" function="internal">
        <lane id=":s3_0_0" index="0" speed="6.51" length="9.03" shape="295.20,-189.60 294.85,-192.05 293.80,-193.80 292.05,-194.85 289.60,-195.20"/>
    </edge>
    <edge id=":s3_1" function="internal">
        <lane id=":s3_1_0" index="0" speed="13.89" length="20.80" shape="295.20,-189.60 295.20,-210.40"/>
        <lane id=":s3_1_1" index="1" speed="13.89" length="20.80" shape="298.40,-189.60 298.40,-210.40"/>
    </edge>
    <edge id=":s3_3" function="internal">
        <lane id=":s3_3_0" index="0" speed="9.26" length="6.96" shape="298.40,-189.60 299.15,-194.85 300.00,-196.27"/>
    </edge>
    <edge id=":s3_16" function="internal">
        <lane id=":s3_16_0" index="0" speed="9.26" length="12.40" shape="300.00,-196.27 301.40,-198.60 305.15,-200.85 310.40,-201.60"/>
    </edge>
    <edge id=":s3_4" function="internal">
        <lane id=":s3_4_0" index="0" speed="6.51" length="9.03" shape="310.40,-195.20 307.95,-194.85 306.20,-193.80 305.15,-192.05 304.80,-189.60"/>
    </edge>
    <edge id=":s3_5" function="internal">
        <lane id=":s3_5_0" index="0" speed="13.89" length="20.80" shape="310.40,-195.20 289.60,-195.20"/>
        <lane id=":s3_5_1" index="1" speed="13.89" length="20.80" shape="310.40,-198.40 289.60,-198.40"/>
    </edge>
    <edge id=":s3_7" function="internal">
        <lane id=":s3_7_0" index="0" speed="9.26" length="6.96" shape="310.40,-198.40 305.15,-199.15 303.73,-200.00"/>
    </edge>
    <edge id=":s3_17" function="internal">
        <lane id=":s3_17_0" index="0" speed="9.26" length="12.40" shape="303.73,-200.00 301.40,-201.40 299.15,-205.15 298.40,-210.40"/>
    </edge>
    <edge id=":s3_8" function="internal">
        <lane id=":s3_8_0" index="0" speed="6.51" length="9.03" shape="304.80,-210.40 305.15,-207.95 306.20,-206.20 307.95,-205.15 310.40,-204.80"/>
    </edge>
    <edge id=":s3_9" function="internal">
        <lane id=":s3_9_0" index="0" speed="13.89" length="20.80" shape="304.80,-210.40 304.80,-189.60"/>
        <lane id=":s3_9_1" index="1" speed="13.89" length="20.80" shape="301.60,-210.40 301.60,-189.60"/>
    </edge>
    <edge id=":s3_11" function="internal">
        <lane id=":s3_11_0" index="0" speed="9.26" length="6.96" shape="301.60,-210.40 300.85,-205.15 300.00,-203.73"/>
    </edge>
    <edge id=":s3_18" function="internal">
        <lane id=":s3_18_0" index="0" speed="9.26" length="12.40" shape="300.00,-203.73 298.60,-201.40 294.85,-199.15 289.60,-198.40"/>
    </edge>
    <edge id=":s3_12" function="internal">