<configuration>
    <input>
        <net-file value="corridor.net.xml"/>
        <route-files value="corridor.rou.xml"/>
    </input>
    <time>
        <begin value="0"/>
        <end value="-1"/>
    </time>
</configuration>
