<flows>
  <vType id="type1" length="5.0" minGap="2.0" maxSpeed="60.0" vClass="passenger">
    <carFollowing-CC tauEngine="0.5" omegaN="0.2" xi="1" c1="0.5" decel="9" lanesCount="2" ccAccel="1.5"/>
  </vType>


  <vType id="type2" length="5.0" minGap="2.0" maxSpeed="60.0" vClass="passenger">
    <carFollowing-CC tauEngine="0.5" omegaN="0.2" xi="1" c1="0.5" decel="9" lanesCount="2" ccAccel="1.5"/>
  </vType>


  <flow id="platoon_1" from="m01" to="m45" begin="1.0" end="6.0" vehsPerHour="3600" type="type1" departSpeed="25" departLane="0" color="red"/>
  <flow id="platoon_2" from="m54" to="m10" begin="1.5" end="6.5" vehsPerHour="3600" type="type2" departSpeed="25" departLane="1" color="red"/>
  <flow id="platoon_15" from="n01" to="s45" begin="2.0" end="7.0" vehsPerHour="3600" type="type2" departSpeed="25" departLane="0" color="red"/>
  <flow id="platoon_16" from="s54" to="n10" begin="2.5" end="7.5" vehsPerHour="3600" type="type2" departSpeed="25" departLane="1" color="red"/>
  <flow id="platoon_17" from="s01" to="n45" begin="3.0" end="8.0" vehsPerHour="3600" type="type2" departSpeed="25" departLane="0" color="red"/>
  <flow id="platoon_18" from="n54" to="s10" begin="3.5" end="8.5" vehsPerHour="3600" type="type2" departSpeed="25" departLane="1" color="red"/>
  <flow id="platoon_19" from="N11" to="-S33" begin="4.0" end="9" vehsPerHour="3600" type="type2" departSpeed="25" departLane="0" color="red"/>
  <flow id="platoon_20" from="S33" to="-N11" begin="4.5" end="9.5" vehsPerHour="3600" type="type2" departSpeed="25" departLane="1" color="red"/>
  <flow id="platoon_21" from="N44" to="-S22" begin="5.0" end="10" vehsPerHour="3600" type="type2" departSpeed="25" departLane="0" color="red"/>
  <flow id="platoon_22" from="S22" to="-N44" begin="5.5" end="10.5" vehsPerHour="3600" type="type2" departSpeed="25" departLane="1" color="red"/>

  <flow id="platoon_3" from="m01" to="m45" begin="11.0" end="16.0" vehsPerHour="3600" type="type1" departSpeed="25" departLane="0" color="red"/>
  <flow id="platoon_4" from="m54" to="m10" begin="11.5" end="16.5" vehsPerHour="3600" type="type2" departSpeed="25" departLane="1" color="red"/>
  <flow id="platoon_23" from="n01" to="s45" begin="12.0" end="17.0" vehsPerHour="3600" type="type2" departSpeed="25" departLane="0" color="red"/>
  <flow id="platoon_24" from="s54" to="n10" begin="12.5" end="17.5" vehsPerHour="3600" type="type2" departSpeed="25" departLane="1" color="red"/>
  <flow id="platoon_25" from="s01" to="n45" begin="13.0" end="18.0" vehsPerHour="3600" type="type2" departSpeed="25" departLane="0" color="red"/>
  <flow id="platoon_26" from="n54" to="s10" begin="13.5" end="18.5" vehsPerHour="3600" type="type2" departSpeed="25" departLane="1" color="red"/>
  <flow id="platoon_27" from="N11" to="-S33" begin="14.0" end="19" vehsPerHour="3600" type="type2" departSpeed="25" departLane="0" color="red"/>
  <flow id="platoon_28" from="S33" to="-N11" begin="14.5" end="19.5" vehsPerHour="3600" type="type2" departSpeed="25" departLane="1" color="red"/>
  <flow id="platoon_29" from="N44" to="-S22" begin="15.0" end="20" vehsPerHour="3600" type="type2" departSpeed="25" departLane="0" color="red"/>
  <flow id="platoon_30" from="S22" to="-N44" begin="15.5" end="20.5" vehsPerHour="3600" type="type2" departSpeed="25" departLane="1" color="red"/>

  <flow id="platoon_5" from="m01" to="m45" begin="21.0" end="26.0" vehsPerHour="3600" type="type1" departSpeed="25" departLane="0" color="red"/>
  <flow id="platoon_6" from="m54" to="m10" begin="21.5" end="26.5" vehsPerHour="3600" type="type2" departSpeed="25" departLane="1" color="red"/>
  <flow id="platoon_31" from="n01" to="s45" begin="22.0" end="27.0" vehsPerHour="3600" type="type2" departSpeed="25" departLane="0" color="red"/>
  <flow id="platoon_32" from="s54" to="n10" begin="22.5" end="27.5" vehsPerHour="3600" type="type2" departSpeed="25" departLane="1" color="red"/>
  <flow id="platoon_33" from="s01" to="n45" begin="23.0" end="28.0" vehsPerHour="3600" type="type2" departSpeed="25" departLane="0" color="red"/>
  <flow id="platoon_34" from="n54" to="s10" begin="23.5" end="28.5" vehsPerHour="3600" type="type2" departSpeed="25" departLane="1" color="red"/>
  <flow id="platoon_35" from="N11" to="-S33" begin="24.0" end="29" vehsPerHour="3600" type="type2" departSpeed="25" departLane="0" color="red"/>
  <flow id="platoon_36" from="S33" to="-N11" begin="24.5" end="29.5" vehsPerHour="3600" type="type2" departSpeed="25" departLane="1" color="red"/>
  <flow id="platoon_37" from="N44" to="-S22" begin="25.0" end="30" vehsPerHour="3600" type="type2" departSpeed="25" departLane="0" color="red"/>
  <flow id="platoon_38" from="S22" to="-N44" begin="25.5" end="30.5" vehsPerHour="3600" type="type2" departSpeed="25" departLane="1" color="red"/>

  <flow id="platoon_7" from="m01" to="m45" begin="55.0" end="60.0" vehsPerHour="3600" type="type1" departSpeed="25" departLane="0" color="red"/>
  <flow id="platoon_8" from="m54" to="m10" begin="55.5" end="60.5" vehsPerHour="3600" type="type2" departSpeed="25" departLane="1" color="red"/>
  <flow id="platoon_39" from="n01" to="s45" begin="56.0" end="61.0" vehsPerHour="3600" type="type2" departSpeed="25" departLane="0" color="red"/>
  <flow id="platoon_40" from="s54" to="n10" begin="56.5" end="61.5" vehsPerHour="3600" type="type2" departSpeed="25" departLane="1" color="red"/>
  <flow id="platoon_41" from="s01" to="n45" begin="57.0" end="62.0" vehsPerHour="3600" type="type2" departSpeed="25" departLane="0" color="red"/>
  <flow id="platoon_42" from="n54" to="s10" begin="57.5" end="62.5" vehsPerHour="3600" type="type2" departSpeed="25" departLane="1" color="red"/>
  <flow id="platoon_43" from="N11" to="-S33" begin="58.0" end="63" vehsPerHour="3600" type="type2" departSpeed="25" departLane="0" color="red"/>
  <flow id="platoon_44" from="S33" to="-N11" begin="58.5" end="63.5" vehsPerHour="3600" type="type2" departSpeed="25" departLane="1" color="red"/>
  <flow id="platoon_45" from="N44" to="-S22" begin="59.0" end="64" vehsPerHour="3600" type="type2" departSpeed="25" departLane="0" color="red"/>
  <flow id="platoon_46" from="S22" to="-N44" begin="59.5" end="64.5" vehsPerHour="3600" type="type2" departSpeed="25" departLane="1" color="red"/>

  <flow id="platoon_9" from="m01" to="m45" begin="72.0" end="77.0" vehsPerHour="3600" type="type1" departSpeed="25" departLane="0" color="red"/>
  <flow id="platoon_10" from="m54" to="m10" begin="72.5" end="77.5" vehsPerHour="3600" type="type2" departSpeed="25" departLane="1" color="red"/>
  <flow id="platoon_47" from="n01" to="s45" begin="73.0" end="78.0" vehsPerHour="3600" type="type2" departSpeed="25" departLane="0" color="red"/>
  <flow id="platoon_48" from="s54" to="n10" begin="73.5" end="78.5" vehsPerHour="3600" type="type2" departSpeed="25" departLane="1" color="red"/>
  <flow id="platoon_49" from="s01" to="n45" begin="74.0" end="79.0" vehsPerHour="3600" type="type2" departSpeed="25" departLane="0" color="red"/>
  <flow id="platoon_50" from="n54" to="s10" begin="74.5" end="79.5" vehsPerHour="3600" type="type2" departSpeed="25" departLane="1" color="red"/>
  <flow id="platoon_51" from="N11" to="-S33" begin="75.0" end="80" vehsPerHour="3600" type="type2" departSpeed="25" departLane="0" color="red"/>
  <flow id="platoon_52" from="S33" to="-N11" begin="75.5" end="80.5" vehsPerHour="3600" type="type2" departSpeed="25" departLane="1" color="red"/>
  <flow id="platoon_53" from="N44" to="-S22" begin="76.0" end="81" vehsPerHour="3600" type="type2" departSpeed="25" departLane="0" color="red"/>
  <flow id="platoon_54" from="S22" to="-N44" begin="76.5" end="81.5" vehsPerHour="3600" type="type2" departSpeed="25" departLane="1" color="red"/>

  <flow id="platoon_11" from="m01" to="m45" begin="105.0" end="110.0" vehsPerHour="3600" type="type2" departSpeed="25" departLane="1" color="red"/>
  <flow id="platoon_12" from="m54" to="m10" begin="105.5" end="110.5" vehsPerHour="3600" type="type2" departSpeed="25" departLane="1" color="red"/>
  <flow id="platoon_55" from="n01" to="s45" begin="106.0" end="111.0" vehsPerHour="3600" type="type2" departSpeed="25" departLane="0" color="red"/>
  <flow id="platoon_56" from="s54" to="n10" begin="106.5" end="111.5" vehsPerHour="3600" type="type2" departSpeed="25" departLane="1" color="red"/>
  <flow id="platoon_57" from="s01" to="n45" begin="107.0" end="112.0" vehsPerHour="3600" type="type2" departSpeed="25" departLane="0" color="red"/>
  <flow id="platoon_58" from="n54" to="s10" begin="107.5" end="112.5" vehsPerHour="3600" type="type2" departSpeed="25" departLane="1" color="red"/>
  <flow id="platoon_59" from="N11" to="-S33" begin="108.0" end="113" vehsPerHour="3600" type="type2" departSpeed="25" departLane="0" color="red"/>
  <flow id="platoon_60" from="S33" to="-N11" begin="108.5" end="113.5" vehsPerHour="3600" type="type2" departSpeed="25" departLane="1" color="red"/>
  <flow id="platoon_61" from="N44" to="-S22" begin="109.0" end="114" vehsPerHour="3600" type="type2" departSpeed="25" departLane="0" color="red"/>
  <flow id="platoon_62" from="S22" to="-N44" begin="109.5" end="114.5" vehsPerHour="3600" type="type2" departSpeed="25" departLane="1" color="red"/>


  <flow id="platoon_13" from="m01" to="m45" begin="105.0" end="110.0" vehsPerHour="3600" type="type2" departSpeed="25" departLane="1" color="red"/>
  <flow id="platoon_14" from="m54" to="m10" begin="105.5" end="110.5" vehsPerHour="3600" type="type2" departSpeed="25" departLane="1" color="red"/>

















</flows>
