<?xml version="1.0" encoding="UTF-8"?>

<!-- generated on Sun 24 Oct 2021 03:48:32 PM PDT by Eclipse SUMO netedit Version v1_7_0+0061-3548f73fe7
<configuration xmlns:xsi="http://www.w3.org/2001/XMLSchema-instance" xsi:noNamespaceSchemaLocation="http://sumo.dlr.de/xsd/netconvertConfiguration.xsd">

    <output>
        <output-file value="/home/hang/AI%20Emission/C3PO_DRL_PLAT_CTR/maps/SingleIntersection/two%20intersections%20scenario/two-intersections.net.xml"/>
    </output>

    <processing>
        <offset.disable-normalization value="true"/>
    </processing>

    <junctions>
        <no-turnarounds value="true"/>
    </junctions>

    <report>
        <aggregate-warnings value="5"/>
    </report>

</configuration>
-->

<net version="1.6" junctionCornerDetail="5" limitTurnSpeed="5.50" xmlns:xsi="http://www.w3.org/2001/XMLSchema-instance" xsi:noNamespaceSchemaLocation="http://sumo.dlr.de/xsd/net_file.xsd">

    <location netOffset="0.00,0.00" convBoundary="-300.00,-200.00,300.00,200.00" origBoundary="10000000000.00,10000000000.00,-10000000000.00,-10000000000.00" projParameter="!"/>

    <edge id=":t1_0" function="internal">
        <lane id=":t1_0_0" index="0" speed="13.89" length="14.40" shape="-104.80,4.00 -104.80,-10.40"/>
        <lane id=":t1_0_1" index="1" speed="13.89" length="14.40" shape="-101.60,4.00 -101.60,-10.40"/>
    </edge>
    <edge id=":t1_2" function="internal">
        <lane id=":t1_2_0" index="0" speed="13.89" length="14.40" shape="-110.40,-4.80 -96.00,-4.80"/>
        <lane id=":t1_2_1" index="1" speed="13.89" length="14.40" shape="-110.40,-1.60 -96.00,-1.60"/>
    </edge>
    <edge id=":t2_0" function="internal">
        <lane id=":t2_0_0" index="0" speed="13.89" length="14.40" shape="95.20,4.00 95.20,-10.40"/>
        <lane id=":t2_0_1" index="1" speed="13.89" length="14.40" shape="98.40,4.00 98.40,-10.40"/>
    </edge>
    <edge id=":t2_2" function="internal">
        <lane id=":t2_2_0" index="0" speed="13.89" length="14.40" shape="89.60,-4.80 104.00,-4.80"/>
        <lane id=":t2_2_1" index="1" speed="13.89" length="14.40" shape="89.60,-1.60 104.00,-1.60"/>
    </edge>

    <edge id="n1_t1" from="n1" to="t1" priority="-1">
        <lane id="n1_t1_0" index="0" speed="13.89" length="196.00" shape="-104.80,200.00 -104.80,4.00"/>
        <lane id="n1_t1_1" index="1" speed="13.89" length="196.00" shape="-101.60,200.00 -101.60,4.00"/>
    </edge>
    <edge id="n2_t2" from="n2" to="t2" priority="-1">
        <lane id="n2_t2_0" index="0" speed="13.89" length="196.00" shape="95.20,200.00 95.20,4.00"/>
        <lane id="n2_t2_1" index="1" speed="13.89" length="196.00" shape="98.40,200.00 98.40,4.00"/>
    </edge>
    <edge id="t1_s1" from="t1" to="s1" priority="-1">
        <lane id="t1_s1_0" index="0" speed="13.89" length="189.60" shape="-104.80,-10.40 -104.80,-200.00"/>
        <lane id="t1_s1_1" index="1" speed="13.89" length="189.60" shape="-101.60,-10.40 -101.60,-200.00"/>
    </edge>
    <edge id="t1_t2" from="t1" to="t2" priority="-1">
        <lane id="t1_t2_0" index="0" speed="13.89" length="185.60" shape="-96.00,-4.80 89.60,-4.80"/>
        <lane id="t1_t2_1" index="1" speed="13.89" length="185.60" shape="-96.00,-1.60 89.60,-1.60"/>
    </edge>
    <edge id="t2_e" from="t2" to="e" priority="-1">
        <lane id="t2_e_0" index="0" speed="13.89" length="196.00" shape="104.00,-4.80 300.00,-4.80"/>
        <lane id="t2_e_1" index="1" speed="13.89" length="196.00" shape="104.00,-1.60 300.00,-1.60"/>
    </edge>
    <edge id="t2_s2" from="t2" to="s2" priority="-1">
        <lane id="t2_s2_0" index="0" speed="13.89" length="189.60" shape="95.20,-10.40 95.20,-200.00"/>
        <lane id="t2_s2_1" index="1" speed="13.89" length="189.60" shape="98.40,-10.40 98.40,-200.00"/>
    </edge>
    <edge id="w_t1" from="w" to="t1" priority="-1">
        <lane id="w_t1_0" index="0" speed="13.89" length="189.60" shape="-300.00,-4.80 -110.40,-4.80"/>
        <lane id="w_t1_1" index="1" speed="13.89" length="189.60" shape="-300.00,-1.60 -110.40,-1.60"/>
    </edge>

    <tlLogic id="t1" type="static" programID="0" offset="0">
        <phase duration="42" state="GGrr"/>
        <phase duration="2"  state="yyrr"/>
        <phase duration="42" state="rrGG"/>
        <phase duration="2"  state="rryy"/>
    </tlLogic>
    <tlLogic id="t2" type="static" programID="0" offset="0">
        <phase duration="42" state="GGrr"/>
        <phase duration="2"  state="yyrr"/>
        <phase duration="42" state="rrGG"/>
        <phase duration="2"  state="rryy"/>
    </tlLogic>

    <junction id="e" type="dead_end" x="300.00" y="0.00" incLanes="t2_e_0 t2_e_1" intLanes="" shape="300.00,-6.40 300.00,0.00"/>
    <junction id="n1" type="dead_end" x="-100.00" y="200.00" incLanes="" intLanes="" shape="-100.00,200.00 -106.40,200.00"/>
    <junction id="n2" type="dead_end" x="100.00" y="200.00" incLanes="" intLanes="" shape="100.00,200.00 93.60,200.00"/>
    <junction id="s1" type="dead_end" x="-100.00" y="-200.00" incLanes="t1_s1_0 t1_s1_1" intLanes="" shape="-106.40,-200.00 -100.00,-200.00"/>
    <junction id="s2" type="dead_end" x="100.00" y="-200.00" incLanes="t2_s2_0 t2_s2_1" intLanes="" shape="93.60,-200.00 100.00,-200.00"/>
    <junction id="t1" type="traffic_light" x="-100.00" y="0.00" incLanes="n1_t1_0 n1_t1_1 w_t1_0 w_t1_1" intLanes=":t1_0_0 :t1_0_1 :t1_2_0 :t1_2_1" shape="-106.40,4.00 -100.00,4.00 -99.56,1.78 -99.00,1.00 -98.22,0.44 -97.22,0.11 -96.00,0.00 -96.00,-6.40 -98.22,-6.84 -99.00,-7.40 -99.56,-8.18 -99.89,-9.18 -100.00,-10.40 -106.40,-10.40 -106.84,-8.18 -107.40,-7.40 -108.18,-6.84 -109.18,-6.51 -110.40,-6.40 -110.40,0.00 -108.18,0.44 -107.40,1.00 -106.84,1.78 -106.51,2.78" customShape="1">
        <request index="0" response="1100" foes="1100" cont="0"/>
        <request index="1" response="1100" foes="1100" cont="0"/>
        <request index="2" response="0000" foes="0011" cont="0"/>
        <request index="3" response="0000" foes="0011" cont="0"/>
    </junction>
    <junction id="t2" type="traffic_light" x="100.00" y="0.00" incLanes="n2_t2_0 n2_t2_1 t1_t2_0 t1_t2_1" intLanes=":t2_0_0 :t2_0_1 :t2_2_0 :t2_2_1" shape="93.60,4.00 100.00,4.00 100.44,1.78 101.00,1.00 101.78,0.44 102.78,0.11 104.00,0.00 104.00,-6.40 101.78,-6.84 101.00,-7.40 100.44,-8.18 100.11,-9.18 100.00,-10.40 93.60,-10.40 93.16,-8.18 92.60,-7.40 91.82,-6.84 90.82,-6.51 89.60,-6.40 89.60,0.00 91.82,0.44 92.60,1.00 93.16,1.78 93.49,2.78">
        <request index="0" response="1100" foes="1100" cont="0"/>
        <request index="1" response="1100" foes="1100" cont="0"/>
        <request index="2" response="0000" foes="0011" cont="0"/>
        <request index="3" response="0000" foes="0011" cont="0"/>
    </junction>
    <junction id="w" type="dead_end" x="-300.00" y="0.00" incLanes="" intLanes="" shape="-300.00,0.00 -300.00,-6.40"/>

    <connection from="n1_t1" to="t1_s1" fromLane="0" toLane="0" via=":t1_0_0" tl="t1" linkIndex="0" dir="s" state="o"/>
    <connection from="n1_t1" to="t1_s1" fromLane="1" toLane="1" via=":t1_0_1" tl="t1" linkIndex="1" dir="s" state="o"/>
    <connection from="n2_t2" to="t2_s2" fromLane="0" toLane="0" via=":t2_0_0" tl="t2" linkIndex="0" dir="s" state="o"/>
    <connection from="n2_t2" to="t2_s2" fromLane="1" toLane="1" via=":t2_0_1" tl="t2" linkIndex="1" dir="s" state="o"/>
    <connection from="t1_t2" to="t2_e" fromLane="0" toLane="0" via=":t2_2_0" tl="t2" linkIndex="2" dir="s" state="O"/>
    <connection from="t1_t2" to="t2_e" fromLane="1" toLane="1" via=":t2_2_1" tl="t2" linkIndex="3" dir="s" state="O"/>
    <connection from="w_t1" to="t1_t2" fromLane="0" toLane="0" via=":t1_2_0" tl="t1" linkIndex="2" dir="s" state="O"/>
    <connection from="w_t1" to="t1_t2" fromLane="1" toLane="1" via=":t1_2_1" tl="t1" linkIndex="3" dir="s" state="O"/>

    <connection from=":t1_0" to="t1_s1" fromLane="0" toLane="0" dir="s" state="M"/>
    <connection from=":t1_0" to="t1_s1" fromLane="1" toLane="1" dir="s" state="M"/>
    <connection from=":t1_2" to="t1_t2" fromLane="0" toLane="0" dir="s" state="M"/>
    <connection from=":t1_2" to="t1_t2" fromLane="1" toLane="1" dir="s" state="M"/>
    <connection from=":t2_0" to="t2_s2" fromLane="0" toLane="0" dir="s" state="M"/>
    <connection from=":t2_0" to="t2_s2" fromLane="1" toLane="1" dir="s" state="M"/>
    <connection from=":t2_2" to="t2_e" fromLane="0" toLane="0" dir="s" state="M"/>
    <connection from=":t2_2" to="t2_e" fromLane="1" toLane="1" dir="s" state="M"/>

</net>
